/*--------------------------------*- C++ -*----------------------------------*\
  =========                 |
  \\      /  F ield         | OpenFOAM: The Open Source CFD Toolbox
   \\    /   O peration     | Website:  https://openfoam.org
    \\  /    A nd           | Version:  10
     \\/     M anipulation  |
\*---------------------------------------------------------------------------*/
FoamFile
{
    format      ascii;
    class       extendedFeatureEdgeMesh;
    location    "constant/extendedFeatureEdgeMesh";
    object      pipe.extendedFeatureEdgeMesh;
}
// * * * * * * * * * * * * * * * * * * * * * * * * * * * * * * * * * * * * * //

// points

3834
(
(-4.62364e-13 823.65 136.55)
(-3.34451e-14 813.35 136.55)
(-4.70511e-13 776.35 136.55)
(-3.34451e-14 786.65 136.55)
(0.205771 813.348 136.55)
(0.411361 813.344 136.549)
(0.727784 786.67 136.548)
(0.364276 786.655 136.549)
(0.748839 813.329 136.548)
(1.09007 786.695 136.546)
(-3.34451e-14 0 136.55)
(2.33132 0 136.53)
(1.08524 813.306 136.546)
(1.45069 786.729 136.542)
(1.80918 786.773 136.538)
(2.16512 786.827 136.533)
(2.51807 786.89 136.527)
(2.8676 786.962 136.52)
(2.33132 1000 136.53)
(-3.34451e-14 1000 136.55)
(2.41293 813.13 136.529)
(2.73863 813.066 136.523)
(2.0844 813.186 136.534)
(1.75338 813.234 136.539)
(1.4202 813.274 136.543)
(3.06114 812.994 136.516)
(3.21329 787.042 136.512)
(3.38014 812.915 136.508)
(4.66197 0 136.47)
(3.55473 787.132 136.504)
(3.89152 787.23 136.495)
(4.22327 787.336 136.485)
(4.5496 787.449 136.474)
(4.8702 787.57 136.463)
(5.18509 787.698 136.452)
(4.91152 812.414 136.462)
(5.20342 812.294 136.451)
(4.61468 812.527 136.472)
(4.31289 812.634 136.482)
(4.00633 812.735 136.491)
(3.69531 812.828 136.5)
(4.66197 1000 136.47)
(5.49413 787.833 136.439)
(5.49029 812.169 136.44)
(6.99125 0 136.371)
(5.79723 787.974 136.427)
(5.77202 812.038 136.428)
(6.09426 788.122 136.414)
(6.38513 788.276 136.401)
(6.66974 788.435 136.387)
(6.94801 788.601 136.373)
(7.21985 788.771 136.359)
(7.48524 788.946 136.345)
(6.99125 1000 136.371)
(7.1288 811.287 136.364)
(7.43501 811.088 136.347)
(6.84595 811.461 136.378)
(6.58557 811.613 136.391)
(6.31974 811.759 136.404)
(6.04853 811.901 136.416)
(7.7442 789.126 136.33)
(7.73276 810.882 136.331)
(7.99674 789.31 136.316)
(8.02207 810.671 136.314)
(8.24287 789.499 136.301)
(9.3185 0 136.232)
(8.48263 789.691 136.286)
(8.71605 789.888 136.271)
(8.94314 790.088 136.257)
(9.16395 790.292 136.242)
(9.3785 790.499 136.228)
(9.58684 790.709 136.213)
(9.789 790.923 136.199)
(9.98503 791.139 136.184)
(9.3185 1000 136.232)
(9.58283 809.295 136.213)
(9.81422 809.05 136.197)
(9.34332 809.536 136.23)
(9.09563 809.772 136.247)
(8.83971 810.004 136.264)
(8.57551 810.232 136.281)
(8.30297 810.454 136.297)
(10.0376 808.802 136.181)
(10.175 791.358 136.17)
(10.253 808.55 136.165)
(10.359 791.579 136.156)
(10.4605 808.295 136.149)
(11.643 0 136.053)
(10.537 791.803 136.143)
(10.7092 792.029 136.129)
(10.8754 792.257 136.116)
(11.0359 792.488 136.103)
(11.1907 792.721 136.091)
(11.3397 792.955 136.078)
(11.4831 793.191 136.066)
(11.6209 793.429 136.055)
(11.7531 793.669 136.043)
(11.8798 793.909 136.032)
(12.0009 794.152 136.022)
(12.1167 794.396 136.011)
(12.2271 794.641 136.001)
(12.1202 805.597 136.011)
(12.2461 805.316 136)
(11.9872 805.876 136.023)
(11.8471 806.154 136.035)
(11.6997 806.43 136.048)
(11.5451 806.703 136.061)
(11.3831 806.975 136.075)
(11.2137 807.244 136.089)
(11.0368 807.511 136.103)
(10.8524 807.775 136.118)
(10.6603 808.036 136.133)
(11.643 1000 136.053)
(12.3321 794.887 135.992)
(12.3649 805.033 135.989)
(12.4317 795.134 135.983)
(12.4767 804.749 135.979)
(12.5261 795.383 135.974)
(12.5816 804.464 135.969)
(12.6152 795.632 135.966)
(12.6991 795.882 135.958)
(12.6797 804.177 135.96)
(13.9642 0 135.834)
(12.7778 796.133 135.951)
(12.7709 803.889 135.952)
(12.8513 796.385 135.944)
(12.9197 796.638 135.937)
(12.983 796.891 135.931)
(13.0411 797.145 135.926)
(13.0943 797.399 135.921)
(13.1423 797.654 135.916)
(13.1854 797.91 135.912)
(13.2234 798.166 135.908)
(13.2564 798.422 135.905)
(13.2844 798.678 135.902)
(13.3075 798.935 135.9)
(13.3255 799.192 135.898)
(13.3386 799.449 135.897)
(13.3468 799.707 135.896)
(13.3492 799.853 135.896)
(13.35 800 135.896)
(13.345 800.364 135.896)
(13.3301 800.729 135.898)
(13.3052 801.092 135.9)
(13.2704 801.456 135.904)
(13.2256 801.818 135.908)
(13.1767 802.144 135.913)
(13.1257 802.437 135.918)
(13.0681 802.729 135.923)
(13.0038 803.02 135.929)
(12.9329 803.311 135.936)
(12.8553 803.601 135.943)
(13.9642 1000 135.834)
(16.2812 0 135.576)
(16.2812 1000 135.576)
(18.5936 1000 135.278)
(18.5936 0 135.278)
(20.9005 0 134.941)
(20.9005 1000 134.941)
(23.2013 0 134.564)
(23.2013 1000 134.564)
(25.4953 1000 134.149)
(25.4953 0 134.149)
(27.7819 1000 133.694)
(27.7819 0 133.694)
(30.0604 1000 133.2)
(30.0604 0 133.2)
(32.3302 1000 132.667)
(32.3302 0 132.667)
(34.5905 1000 132.096)
(34.5905 0 132.096)
(36.8408 0 131.486)
(36.8408 1000 131.486)
(39.0802 1000 130.838)
(39.0802 0 130.838)
(41.3084 0 130.152)
(41.3084 1000 130.152)
(43.5244 0 129.428)
(45.7278 0 128.666)
(43.5244 1000 129.428)
(45.7278 1000 128.666)
(47.9179 0 127.866)
(47.9179 1000 127.866)
(50.0939 0 127.03)
(50.0939 1000 127.03)
(52.2554 0 126.156)
(52.2554 1000 126.156)
(54.4017 0 125.245)
(56.5321 0 124.298)
(54.4017 1000 125.245)
(56.5321 1000 124.298)
(58.646 0 123.315)
(58.646 1000 123.315)
(60.7428 0 122.296)
(62.8219 0 121.241)
(60.7428 1000 122.296)
(62.8219 1000 121.241)
(64.8827 0 120.15)
(64.8827 1000 120.15)
(66.9246 1000 119.025)
(66.9246 0 119.025)
(68.9469 1000 117.865)
(68.9469 0 117.865)
(70.9492 0 116.671)
(70.9492 1000 116.671)
(72.9308 1000 115.443)
(72.9308 0 115.443)
(74.8911 1000 114.181)
(74.8911 0 114.181)
(76.8296 1000 112.885)
(76.8296 0 112.885)
(78.7457 0 111.557)
(78.7457 1000 111.557)
(80.6388 1000 110.197)
(80.6388 0 110.197)
(82.5085 0 108.804)
(82.5085 1000 108.804)
(84.3541 1000 107.379)
(84.3541 0 107.379)
(86.1751 0 105.923)
(86.1751 1000 105.923)
(87.9709 1000 104.437)
(87.9709 0 104.437)
(89.7412 1000 102.92)
(89.7412 0 102.92)
(91.4852 0 101.372)
(91.4852 1000 101.372)
(93.2026 1000 99.7956)
(93.2026 0 99.7956)
(94.8929 1000 98.1898)
(94.8929 0 98.1898)
(96.5554 1000 96.5554)
(96.5554 0 96.5554)
(98.1898 1000 94.8929)
(98.1898 0 94.8929)
(99.7956 1000 93.2026)
(99.7956 0 93.2026)
(101.372 1000 91.4852)
(101.372 0 91.4852)
(102.92 1000 89.7412)
(102.92 0 89.7412)
(104.437 0 87.9709)
(104.437 1000 87.9709)
(105.923 0 86.1751)
(105.923 1000 86.1751)
(107.379 1000 84.3541)
(107.379 0 84.3541)
(108.804 0 82.5085)
(108.804 1000 82.5085)
(110.197 0 80.6388)
(111.557 0 78.7457)
(110.197 1000 80.6388)
(111.557 1000 78.7457)
(112.885 0 76.8296)
(112.885 1000 76.8296)
(114.181 0 74.8911)
(114.181 1000 74.8911)
(115.443 0 72.9308)
(115.443 1000 72.9308)
(116.671 0 70.9492)
(116.671 1000 70.9492)
(117.865 0 68.9469)
(117.865 1000 68.9469)
(119.025 0 66.9246)
(120.15 0 64.8827)
(119.025 1000 66.9246)
(120.15 1000 64.8827)
(121.241 0 62.8219)
(121.241 1000 62.8219)
(122.296 0 60.7428)
(123.315 0 58.646)
(122.296 1000 60.7428)
(123.315 1000 58.646)
(124.298 0 56.5321)
(124.298 1000 56.5321)
(125.245 0 54.4017)
(126.156 0 52.2554)
(125.245 1000 54.4017)
(126.156 1000 52.2554)
(127.03 0 50.0939)
(127.03 1000 50.0939)
(127.866 0 47.9179)
(127.866 1000 47.9179)
(128.666 0 45.7278)
(128.666 1000 45.7278)
(129.428 0 43.5244)
(129.428 1000 43.5244)
(130.152 0 41.3084)
(130.152 1000 41.3084)
(130.838 0 39.0802)
(130.838 1000 39.0802)
(131.486 0 36.8408)
(131.486 1000 36.8408)
(132.096 0 34.5905)
(132.096 1000 34.5905)
(132.667 0 32.3302)
(132.667 1000 32.3302)
(133.2 1000 30.0604)
(133.2 0 30.0604)
(133.694 1000 27.7819)
(133.694 0 27.7819)
(134.149 0 25.4953)
(134.149 1000 25.4953)
(134.564 0 23.2013)
(134.564 1000 23.2013)
(134.941 1000 20.9005)
(134.941 0 20.9005)
(135.278 1000 18.5936)
(135.278 0 18.5936)
(135.576 0 16.2812)
(135.576 1000 16.2812)
(135.834 0 13.9642)
(135.834 1000 13.9642)
(136.053 0 11.643)
(136.232 0 9.3185)
(136.053 1000 11.643)
(136.232 1000 9.3185)
(136.371 0 6.99125)
(136.371 1000 6.99125)
(136.47 0 4.66197)
(136.53 0 2.33132)
(136.47 1000 4.66197)
(136.53 1000 2.33132)
(136.55 0 -3.85801e-13)
(136.55 1000 -3.85801e-13)
(136.53 0 -2.33132)
(136.47 0 -4.66197)
(136.53 1000 -2.33132)
(136.47 1000 -4.66197)
(136.371 0 -6.99125)
(136.371 1000 -6.99125)
(136.232 0 -9.3185)
(136.232 1000 -9.3185)
(136.053 0 -11.643)
(135.834 0 -13.9642)
(136.053 1000 -11.643)
(135.576 0 -16.2812)
(135.834 1000 -13.9642)
(135.576 1000 -16.2812)
(135.278 0 -18.5936)
(135.278 1000 -18.5936)
(134.941 0 -20.9005)
(134.941 1000 -20.9005)
(134.564 0 -23.2013)
(134.149 0 -25.4953)
(134.564 1000 -23.2013)
(134.149 1000 -25.4953)
(133.694 0 -27.7819)
(133.694 1000 -27.7819)
(133.2 1000 -30.0604)
(133.2 0 -30.0604)
(132.667 1000 -32.3302)
(132.667 0 -32.3302)
(132.096 0 -34.5905)
(132.096 1000 -34.5905)
(131.486 1000 -36.8408)
(131.486 0 -36.8408)
(130.838 1000 -39.0802)
(130.838 0 -39.0802)
(130.152 0 -41.3084)
(130.152 1000 -41.3084)
(129.428 1000 -43.5244)
(129.428 0 -43.5244)
(128.666 1000 -45.7278)
(128.666 0 -45.7278)
(127.866 1000 -47.9179)
(127.866 0 -47.9179)
(127.03 1000 -50.0939)
(127.03 0 -50.0939)
(126.156 1000 -52.2554)
(126.156 0 -52.2554)
(125.245 0 -54.4017)
(125.245 1000 -54.4017)
(124.298 1000 -56.5321)
(124.298 0 -56.5321)
(123.315 1000 -58.646)
(123.315 0 -58.646)
(122.296 0 -60.7428)
(122.296 1000 -60.7428)
(121.241 0 -62.8219)
(121.241 1000 -62.8219)
(120.15 0 -64.8827)
(119.025 0 -66.9246)
(120.15 1000 -64.8827)
(119.025 1000 -66.9246)
(117.865 0 -68.9469)
(117.865 1000 -68.9469)
(116.671 0 -70.9492)
(115.443 0 -72.9308)
(116.671 1000 -70.9492)
(115.443 1000 -72.9308)
(114.181 0 -74.8911)
(114.181 1000 -74.8911)
(112.885 0 -76.8296)
(112.885 1000 -76.8296)
(111.557 0 -78.7457)
(110.197 0 -80.6388)
(111.557 1000 -78.7457)
(110.197 1000 -80.6388)
(108.804 1000 -82.5085)
(108.804 0 -82.5085)
(107.379 0 -84.3541)
(107.379 1000 -84.3541)
(105.923 1000 -86.1751)
(105.923 0 -86.1751)
(104.437 1000 -87.9709)
(104.437 0 -87.9709)
(102.92 1000 -89.7412)
(102.92 0 -89.7412)
(101.372 1000 -91.4852)
(101.372 0 -91.4852)
(99.7956 1000 -93.2026)
(99.7956 0 -93.2026)
(98.1898 1000 -94.8929)
(98.1898 0 -94.8929)
(96.5554 1000 -96.5554)
(96.5554 0 -96.5554)
(94.8929 0 -98.1898)
(94.8929 1000 -98.1898)
(93.2026 0 -99.7956)
(93.2026 1000 -99.7956)
(91.4852 1000 -101.372)
(91.4852 0 -101.372)
(89.7412 1000 -102.92)
(89.7412 0 -102.92)
(87.9709 1000 -104.437)
(87.9709 0 -104.437)
(86.1751 1000 -105.923)
(86.1751 0 -105.923)
(84.3541 1000 -107.379)
(84.3541 0 -107.379)
(82.5085 0 -108.804)
(82.5085 1000 -108.804)
(80.6388 1000 -110.197)
(80.6388 0 -110.197)
(78.7457 1000 -111.557)
(78.7457 0 -111.557)
(76.8296 1000 -112.885)
(76.8296 0 -112.885)
(74.8911 0 -114.181)
(74.8911 1000 -114.181)
(72.9308 1000 -115.443)
(72.9308 0 -115.443)
(70.9492 0 -116.671)
(70.9492 1000 -116.671)
(68.9469 0 -117.865)
(68.9469 1000 -117.865)
(66.9246 1000 -119.025)
(66.9246 0 -119.025)
(64.8827 1000 -120.15)
(64.8827 0 -120.15)
(62.8219 1000 -121.241)
(62.8219 0 -121.241)
(60.7428 0 -122.296)
(60.7428 1000 -122.296)
(58.646 0 -123.315)
(58.646 1000 -123.315)
(56.5321 0 -124.298)
(54.4017 0 -125.245)
(56.5321 1000 -124.298)
(54.4017 1000 -125.245)
(52.2554 0 -126.156)
(52.2554 1000 -126.156)
(50.0939 0 -127.03)
(50.0939 1000 -127.03)
(47.9179 0 -127.866)
(47.9179 1000 -127.866)
(45.7278 0 -128.666)
(45.7278 1000 -128.666)
(43.5244 0 -129.428)
(43.5244 1000 -129.428)
(41.3084 0 -130.152)
(41.3084 1000 -130.152)
(39.0802 0 -130.838)
(39.0802 1000 -130.838)
(36.8408 0 -131.486)
(36.8408 1000 -131.486)
(34.5905 0 -132.096)
(34.5905 1000 -132.096)
(32.3302 0 -132.667)
(32.3302 1000 -132.667)
(30.0604 0 -133.2)
(30.0604 1000 -133.2)
(27.7819 0 -133.694)
(27.7819 1000 -133.694)
(25.4953 0 -134.149)
(25.4953 1000 -134.149)
(23.2013 0 -134.564)
(23.2013 1000 -134.564)
(20.9005 0 -134.941)
(20.9005 1000 -134.941)
(18.5936 0 -135.278)
(18.5936 1000 -135.278)
(16.2812 0 -135.576)
(16.2812 1000 -135.576)
(13.9642 0 -135.834)
(11.643 0 -136.053)
(13.9642 1000 -135.834)
(11.643 1000 -136.053)
(9.3185 0 -136.232)
(9.3185 1000 -136.232)
(6.99125 1000 -136.371)
(6.99125 0 -136.371)
(4.66197 1000 -136.47)
(4.66197 0 -136.47)
(2.33132 1000 -136.53)
(2.33132 0 -136.53)
(1.04761e-12 1000 -136.55)
(1.04761e-12 0 -136.55)
(-2.33132 1000 -136.53)
(-2.33132 0 -136.53)
(-4.66197 0 -136.47)
(-4.66197 1000 -136.47)
(-6.99125 0 -136.371)
(-6.99125 1000 -136.371)
(-9.3185 0 -136.232)
(-9.3185 1000 -136.232)
(-11.643 0 -136.053)
(-11.643 1000 -136.053)
(-13.9642 0 -135.834)
(-13.9642 1000 -135.834)
(-16.2812 0 -135.576)
(-16.2812 1000 -135.576)
(-18.5936 0 -135.278)
(-18.5936 1000 -135.278)
(-20.9005 0 -134.941)
(-20.9005 1000 -134.941)
(-23.2013 0 -134.564)
(-23.2013 1000 -134.564)
(-25.4953 0 -134.149)
(-25.4953 1000 -134.149)
(-27.7819 0 -133.694)
(-27.7819 1000 -133.694)
(-30.0604 0 -133.2)
(-30.0604 1000 -133.2)
(-32.3302 0 -132.667)
(-32.3302 1000 -132.667)
(-34.5905 0 -132.096)
(-34.5905 1000 -132.096)
(-36.8408 0 -131.486)
(-36.8408 1000 -131.486)
(-39.0802 0 -130.838)
(-39.0802 1000 -130.838)
(-41.3084 0 -130.152)
(-41.3084 1000 -130.152)
(-43.5244 0 -129.428)
(-43.5244 1000 -129.428)
(-45.7278 1000 -128.666)
(-45.7278 0 -128.666)
(-47.9179 1000 -127.866)
(-47.9179 0 -127.866)
(-50.0939 0 -127.03)
(-50.0939 1000 -127.03)
(-52.2554 1000 -126.156)
(-52.2554 0 -126.156)
(-54.4017 1000 -125.245)
(-54.4017 0 -125.245)
(-56.5321 1000 -124.298)
(-56.5321 0 -124.298)
(-58.646 1000 -123.315)
(-58.646 0 -123.315)
(-60.7428 1000 -122.296)
(-60.7428 0 -122.296)
(-62.8219 1000 -121.241)
(-62.8219 0 -121.241)
(-64.8827 1000 -120.15)
(-64.8827 0 -120.15)
(-66.9246 1000 -119.025)
(-66.9246 0 -119.025)
(-68.9469 1000 -117.865)
(-68.9469 0 -117.865)
(-70.9492 1000 -116.671)
(-70.9492 0 -116.671)
(-72.9308 1000 -115.443)
(-72.9308 0 -115.443)
(-74.8911 1000 -114.181)
(-74.8911 0 -114.181)
(-76.8296 1000 -112.885)
(-76.8296 0 -112.885)
(-78.7457 0 -111.557)
(-80.6388 0 -110.197)
(-78.7457 1000 -111.557)
(-80.6388 1000 -110.197)
(-82.5085 0 -108.804)
(-82.5085 1000 -108.804)
(-84.3541 0 -107.379)
(-84.3541 1000 -107.379)
(-86.1751 0 -105.923)
(-87.9709 0 -104.437)
(-86.1751 1000 -105.923)
(-87.9709 1000 -104.437)
(-89.7412 0 -102.92)
(-89.7412 1000 -102.92)
(-91.4852 0 -101.372)
(-91.4852 1000 -101.372)
(-93.2026 0 -99.7956)
(-93.2026 1000 -99.7956)
(-94.8929 0 -98.1898)
(-94.8929 1000 -98.1898)
(-96.5554 1000 -96.5554)
(-96.5554 0 -96.5554)
(-98.1898 1000 -94.8929)
(-98.1898 0 -94.8929)
(-99.7956 1000 -93.2026)
(-99.7956 0 -93.2026)
(-101.372 0 -91.4852)
(-101.372 1000 -91.4852)
(-102.92 1000 -89.7412)
(-102.92 0 -89.7412)
(-104.437 1000 -87.9709)
(-104.437 0 -87.9709)
(-105.923 1000 -86.1751)
(-105.923 0 -86.1751)
(-107.379 1000 -84.3541)
(-107.379 0 -84.3541)
(-108.804 1000 -82.5085)
(-108.804 0 -82.5085)
(-110.197 1000 -80.6388)
(-110.197 0 -80.6388)
(-111.557 1000 -78.7457)
(-111.557 0 -78.7457)
(-112.885 1000 -76.8296)
(-112.885 0 -76.8296)
(-114.181 1000 -74.8911)
(-114.181 0 -74.8911)
(-115.443 1000 -72.9308)
(-115.443 0 -72.9308)
(-116.671 1000 -70.9492)
(-116.671 0 -70.9492)
(-117.865 1000 -68.9469)
(-117.865 0 -68.9469)
(-119.025 1000 -66.9246)
(-119.025 0 -66.9246)
(-120.15 1000 -64.8827)
(-120.15 0 -64.8827)
(-121.241 1000 -62.8219)
(-121.241 0 -62.8219)
(-122.296 1000 -60.7428)
(-122.296 0 -60.7428)
(-123.315 1000 -58.646)
(-123.315 0 -58.646)
(-124.298 1000 -56.5321)
(-124.298 0 -56.5321)
(-125.245 1000 -54.4017)
(-125.245 0 -54.4017)
(-126.156 0 -52.2554)
(-126.156 1000 -52.2554)
(-127.03 0 -50.0939)
(-127.03 1000 -50.0939)
(-127.866 1000 -47.9179)
(-127.866 0 -47.9179)
(-128.666 1000 -45.7278)
(-128.666 0 -45.7278)
(-129.428 1000 -43.5244)
(-129.428 0 -43.5244)
(-130.152 0 -41.3084)
(-130.152 1000 -41.3084)
(-130.838 0 -39.0802)
(-130.838 1000 -39.0802)
(-131.486 0 -36.8408)
(-131.486 1000 -36.8408)
(-132.096 0 -34.5905)
(-132.096 1000 -34.5905)
(-132.667 0 -32.3302)
(-132.667 1000 -32.3302)
(-133.2 0 -30.0604)
(-133.2 1000 -30.0604)
(-133.694 0 -27.7819)
(-133.694 1000 -27.7819)
(-134.149 0 -25.4953)
(-134.149 1000 -25.4953)
(-134.564 0 -23.2013)
(-134.564 1000 -23.2013)
(-134.941 0 -20.9005)
(-134.941 1000 -20.9005)
(-135.278 0 -18.5936)
(-135.278 1000 -18.5936)
(-135.576 0 -16.2812)
(-135.576 1000 -16.2812)
(-135.834 0 -13.9642)
(-135.834 1000 -13.9642)
(-136.053 0 -11.643)
(-136.053 1000 -11.643)
(-136.232 0 -9.3185)
(-136.232 1000 -9.3185)
(-136.371 0 -6.99125)
(-136.371 1000 -6.99125)
(-136.47 0 -4.66197)
(-136.47 1000 -4.66197)
(-136.53 0 -2.33132)
(-136.53 1000 -2.33132)
(-136.55 0 -3.17838e-12)
(-136.55 1000 -3.17838e-12)
(-136.53 0 2.33132)
(-136.53 1000 2.33132)
(-136.47 0 4.66197)
(-136.47 1000 4.66197)
(-136.371 0 6.99125)
(-136.371 1000 6.99125)
(-136.232 1000 9.3185)
(-136.232 0 9.3185)
(-136.053 1000 11.643)
(-136.053 0 11.643)
(-135.834 1000 13.9642)
(-135.834 0 13.9642)
(-135.576 1000 16.2812)
(-135.576 0 16.2812)
(-135.278 1000 18.5936)
(-135.278 0 18.5936)
(-134.941 1000 20.9005)
(-134.941 0 20.9005)
(-134.564 1000 23.2013)
(-134.564 0 23.2013)
(-134.149 0 25.4953)
(-134.149 1000 25.4953)
(-133.694 0 27.7819)
(-133.694 1000 27.7819)
(-133.2 0 30.0604)
(-133.2 1000 30.0604)
(-132.667 0 32.3302)
(-132.667 1000 32.3302)
(-132.096 0 34.5905)
(-132.096 1000 34.5905)
(-131.486 0 36.8408)
(-131.486 1000 36.8408)
(-130.838 0 39.0802)
(-130.838 1000 39.0802)
(-130.152 0 41.3084)
(-130.152 1000 41.3084)
(-129.428 0 43.5244)
(-129.428 1000 43.5244)
(-128.666 0 45.7278)
(-128.666 1000 45.7278)
(-127.866 0 47.9179)
(-127.866 1000 47.9179)
(-127.03 0 50.0939)
(-127.03 1000 50.0939)
(-126.156 0 52.2554)
(-126.156 1000 52.2554)
(-125.245 0 54.4017)
(-125.245 1000 54.4017)
(-124.298 0 56.5321)
(-124.298 1000 56.5321)
(-123.315 0 58.646)
(-123.315 1000 58.646)
(-122.296 0 60.7428)
(-122.296 1000 60.7428)
(-121.241 0 62.8219)
(-121.241 1000 62.8219)
(-120.15 1000 64.8827)
(-120.15 0 64.8827)
(-119.025 0 66.9246)
(-119.025 1000 66.9246)
(-117.865 1000 68.9469)
(-117.865 0 68.9469)
(-116.671 1000 70.9492)
(-116.671 0 70.9492)
(-115.443 1000 72.9308)
(-115.443 0 72.9308)
(-114.181 1000 74.8911)
(-114.181 0 74.8911)
(-112.885 1000 76.8296)
(-112.885 0 76.8296)
(-111.557 1000 78.7457)
(-111.557 0 78.7457)
(-110.197 1000 80.6388)
(-110.197 0 80.6388)
(-108.804 1000 82.5085)
(-108.804 0 82.5085)
(-107.379 1000 84.3541)
(-107.379 0 84.3541)
(-105.923 1000 86.1751)
(-105.923 0 86.1751)
(-104.437 1000 87.9709)
(-104.437 0 87.9709)
(-102.92 1000 89.7412)
(-102.92 0 89.7412)
(-101.372 1000 91.4852)
(-101.372 0 91.4852)
(-99.7956 1000 93.2026)
(-99.7956 0 93.2026)
(-98.1898 0 94.8929)
(-98.1898 1000 94.8929)
(-96.5554 0 96.5554)
(-96.5554 1000 96.5554)
(-94.8929 0 98.1898)
(-94.8929 1000 98.1898)
(-93.2026 0 99.7956)
(-93.2026 1000 99.7956)
(-91.4852 0 101.372)
(-91.4852 1000 101.372)
(-89.7412 0 102.92)
(-89.7412 1000 102.92)
(-87.9709 0 104.437)
(-87.9709 1000 104.437)
(-86.1751 0 105.923)
(-86.1751 1000 105.923)
(-84.3541 0 107.379)
(-84.3541 1000 107.379)
(-82.5085 0 108.804)
(-82.5085 1000 108.804)
(-80.6388 1000 110.197)
(-80.6388 0 110.197)
(-78.7457 1000 111.557)
(-78.7457 0 111.557)
(-76.8296 1000 112.885)
(-76.8296 0 112.885)
(-74.8911 1000 114.181)
(-74.8911 0 114.181)
(-72.9308 1000 115.443)
(-72.9308 0 115.443)
(-70.9492 1000 116.671)
(-70.9492 0 116.671)
(-68.9469 1000 117.865)
(-68.9469 0 117.865)
(-66.9246 1000 119.025)
(-66.9246 0 119.025)
(-64.8827 1000 120.15)
(-64.8827 0 120.15)
(-62.8219 1000 121.241)
(-62.8219 0 121.241)
(-60.7428 1000 122.296)
(-60.7428 0 122.296)
(-58.646 1000 123.315)
(-58.646 0 123.315)
(-56.5321 1000 124.298)
(-56.5321 0 124.298)
(-54.4017 1000 125.245)
(-54.4017 0 125.245)
(-52.2554 1000 126.156)
(-52.2554 0 126.156)
(-50.0939 1000 127.03)
(-50.0939 0 127.03)
(-47.9179 1000 127.866)
(-47.9179 0 127.866)
(-45.7278 1000 128.666)
(-45.7278 0 128.666)
(-43.5244 1000 129.428)
(-43.5244 0 129.428)
(-41.3084 1000 130.152)
(-41.3084 0 130.152)
(-39.0802 1000 130.838)
(-39.0802 0 130.838)
(-36.8408 1000 131.486)
(-36.8408 0 131.486)
(-34.5905 1000 132.096)
(-34.5905 0 132.096)
(-32.3302 0 132.667)
(-32.3302 1000 132.667)
(-30.0604 0 133.2)
(-30.0604 1000 133.2)
(-27.7819 1000 133.694)
(-27.7819 0 133.694)
(-25.4953 1000 134.149)
(-25.4953 0 134.149)
(-23.2013 1000 134.564)
(-23.2013 0 134.564)
(-20.9005 0 134.941)
(-20.9005 1000 134.941)
(-18.5936 0 135.278)
(-16.2812 0 135.576)
(-18.5936 1000 135.278)
(-16.2812 1000 135.576)
(-13.3482 799.781 135.896)
(-13.3499 800.039 135.896)
(-13.3415 799.524 135.897)
(-13.3299 799.267 135.898)
(-13.3132 799.01 135.899)
(-13.9642 0 135.834)
(-13.9642 1000 135.834)
(-13.3385 800.553 135.897)
(-13.3254 800.81 135.898)
(-13.3467 800.296 135.896)
(-13.3073 801.067 135.9)
(-13.2916 798.753 135.902)
(-13.2842 801.324 135.902)
(-13.2651 798.496 135.904)
(-13.2561 801.58 135.905)
(-13.2335 798.24 135.907)
(-13.2231 801.837 135.908)
(-13.1969 797.984 135.911)
(-13.185 802.092 135.912)
(-13.1553 797.729 135.915)
(-13.1419 802.348 135.916)
(-13.1087 797.473 135.919)
(-13.0938 802.603 135.921)
(-13.0571 797.219 135.924)
(-13.0407 802.857 135.926)
(-13.0003 796.965 135.93)
(-12.9825 803.111 135.931)
(-12.9385 796.711 135.936)
(-12.9191 803.364 135.938)
(-12.8716 796.458 135.942)
(-12.8507 803.617 135.944)
(-11.643 0 136.053)
(-12.7996 796.206 135.949)
(-12.7772 803.869 135.951)
(-12.7224 795.955 135.956)
(-12.64 795.704 135.964)
(-12.5524 795.455 135.972)
(-12.4596 795.206 135.98)
(-12.3615 794.959 135.989)
(-12.2581 794.712 135.999)
(-12.1493 794.467 136.008)
(-12.0352 794.223 136.019)
(-11.9157 793.98 136.029)
(-11.7906 793.739 136.04)
(-11.6601 793.499 136.051)
(-11.524 793.261 136.063)
(-11.3824 793.024 136.075)
(-11.235 792.789 136.087)
(-11.082 792.556 136.1)
(-11.1903 807.28 136.091)
(-11.0357 807.513 136.103)
(-11.3393 807.046 136.078)
(-11.4826 806.81 136.066)
(-11.6203 806.572 136.055)
(-11.7524 806.333 136.043)
(-11.8791 806.092 136.032)
(-12.0002 805.849 136.022)
(-12.116 805.606 136.011)
(-12.2263 805.361 136.001)
(-12.3313 805.115 135.992)
(-12.431 804.867 135.983)
(-12.5254 804.619 135.974)
(-12.6145 804.37 135.966)
(-12.6984 804.12 135.958)
(-11.643 1000 136.053)
(-10.9233 792.325 136.112)
(-10.8752 807.743 136.116)
(-10.7587 792.096 136.126)
(-10.709 807.971 136.129)
(-10.5883 791.869 136.139)
(-10.5369 808.197 136.143)
(-9.3185 0 136.232)
(-10.4121 791.645 136.152)
(-10.2298 791.422 136.166)
(-10.0416 791.203 136.18)
(-9.84731 790.986 136.195)
(-9.64691 790.772 136.209)
(-9.44034 790.561 136.223)
(-9.22756 790.352 136.238)
(-9.00854 790.148 136.253)
(-8.78324 789.946 136.267)
(-8.94314 809.912 136.257)
(-8.71605 810.112 136.271)
(-9.16395 809.708 136.242)
(-9.3785 809.501 136.228)
(-9.58684 809.291 136.213)
(-9.789 809.077 136.199)
(-9.98503 808.861 136.184)
(-10.175 808.643 136.17)
(-10.3589 808.421 136.156)
(-9.3185 1000 136.232)
(-8.55162 789.748 136.282)
(-8.48263 810.309 136.286)
(-8.31366 789.555 136.297)
(-8.24287 810.501 136.301)
(-6.99125 0 136.371)
(-8.06933 789.365 136.311)
(-7.81861 789.179 136.326)
(-7.56147 788.998 136.34)
(-7.29789 788.821 136.355)
(-7.02786 788.65 136.369)
(-6.75139 788.483 136.383)
(-6.46854 788.322 136.397)
(-6.66974 811.565 136.387)
(-6.38513 811.724 136.401)
(-6.94801 811.399 136.373)
(-7.21985 811.229 136.359)
(-7.48524 811.054 136.345)
(-7.7442 810.874 136.33)
(-7.99674 810.69 136.316)
(-6.99125 1000 136.371)
(-6.17941 788.166 136.41)
(-6.09426 811.878 136.414)
(-4.66197 0 136.47)
(-5.88409 788.017 136.423)
(-5.79723 812.026 136.427)
(-5.58267 787.873 136.436)
(-5.27526 787.737 136.448)
(-4.96198 787.606 136.46)
(-4.64295 787.483 136.471)
(-4.31818 787.368 136.482)
(-3.98788 787.26 136.492)
(-4.5496 812.551 136.474)
(-4.22327 812.664 136.485)
(-4.8702 812.43 136.463)
(-5.18509 812.302 136.452)
(-5.49413 812.167 136.439)
(-4.66197 1000 136.47)
(-3.89152 812.77 136.495)
(-2.33132 0 136.53)
(-3.65243 787.159 136.501)
(-3.55473 812.868 136.504)
(-3.3122 787.067 136.51)
(-2.96761 786.984 136.518)
(-2.61906 786.909 136.525)
(-2.26696 786.844 136.531)
(-1.91175 786.788 136.537)
(-2.16512 813.173 136.533)
(-1.80918 813.227 136.538)
(-2.51807 813.11 136.527)
(-2.8676 813.038 136.52)
(-3.21329 812.958 136.512)
(-2.33132 1000 136.53)
(-1.55385 786.741 136.541)
(-1.45069 813.271 136.542)
(-1.19371 786.703 136.545)
(-1.09007 813.305 136.546)
(-0.831773 786.676 136.548)
(-0.46848 786.658 136.549)
(-0.234365 786.652 136.55)
(-0.727784 813.33 136.548)
(-0.364276 813.345 136.549)
(13.345 800.364 126.578)
(13.35 800 126.578)
(13.3301 800.728 126.58)
(13.3053 801.092 126.583)
(13.2704 801.455 126.586)
(13.2306 801.782 126.59)
(13.1878 802.075 126.595)
(13.1384 802.367 126.6)
(13.0824 802.66 126.606)
(13.0198 802.951 126.612)
(12.9504 803.242 126.619)
(12.8744 803.531 126.627)
(12.7917 803.82 126.636)
(12.7022 804.108 126.645)
(12.6059 804.395 126.654)
(12.5027 804.68 126.664)
(12.3925 804.965 126.675)
(12.2754 805.247 126.687)
(12.1513 805.529 126.699)
(12.0202 805.808 126.711)
(11.8818 806.086 126.724)
(11.7363 806.362 126.738)
(11.5836 806.637 126.752)
(11.4235 806.909 126.766)
(11.256 807.178 126.781)
(11.081 807.445 126.797)
(10.8986 807.71 126.812)
(10.7085 807.972 126.829)
(10.5107 808.231 126.845)
(10.3052 808.487 126.862)
(10.0919 808.739 126.879)
(9.87067 808.989 126.897)
(9.64144 809.234 126.914)
(9.40411 809.476 126.932)
(9.15863 809.713 126.95)
(8.90495 809.946 126.968)
(8.643 810.174 126.986)
(8.37274 810.398 127.004)
(8.09414 810.616 127.022)
(7.80715 810.829 127.04)
(7.51173 811.036 127.058)
(7.20787 811.237 127.076)
(6.92714 811.412 127.091)
(6.66865 811.565 127.105)
(6.4047 811.713 127.119)
(6.13535 811.857 127.132)
(5.86067 811.995 127.145)
(5.58075 812.128 127.158)
(5.29567 812.255 127.17)
(5.00553 812.376 127.182)
(4.71041 812.491 127.193)
(4.41037 812.6 127.204)
(4.10546 812.703 127.214)
(3.79599 812.799 127.223)
(3.48227 812.888 127.232)
(3.16461 812.969 127.241)
(2.84333 813.044 127.248)
(2.51877 813.11 127.255)
(2.19126 813.169 127.261)
(1.86114 813.22 127.266)
(1.52875 813.262 127.271)
(1.19446 813.297 127.274)
(0.858618 813.322 127.277)
(0.521579 813.34 127.279)
(0.260954 813.347 127.28)
(-3.11746e-14 813.35 127.28)
(-0.364145 813.345 127.28)
(-0.72752 813.33 127.278)
(-1.08967 813.305 127.275)
(-1.45015 813.271 127.272)
(-1.80851 813.227 127.267)
(-2.16432 813.173 127.262)
(-2.51713 813.111 127.255)
(-2.86653 813.039 127.248)
(-3.21208 812.958 127.24)
(-3.55339 812.868 127.23)
(-3.89005 812.771 127.22)
(-4.22166 812.665 127.21)
(-4.54786 812.552 127.199)
(-4.86833 812.431 127.187)
(-5.18308 812.303 127.174)
(-5.492 812.168 127.161)
(-5.79498 812.027 127.148)
(-6.09189 811.879 127.134)
(-6.38264 811.725 127.12)
(-6.66714 811.566 127.105)
(-6.94531 811.401 127.09)
(-7.21706 811.231 127.075)
(-7.48236 811.056 127.06)
(-7.74123 810.876 127.044)
(-7.99368 810.692 127.029)
(-8.23975 810.504 127.013)
(-8.47945 810.311 126.997)
(-8.7128 810.115 126.981)
(-8.93985 809.915 126.966)
(-9.16061 809.711 126.95)
(-9.37513 809.504 126.934)
(-9.58344 809.294 126.919)
(-9.78559 809.081 126.903)
(-9.9816 808.865 126.888)
(-10.1716 808.646 126.873)
(-10.3555 808.425 126.858)
(-10.5335 808.202 126.843)
(-10.7056 807.976 126.829)
(-10.8719 807.748 126.815)
(-11.0323 807.517 126.801)
(-11.187 807.285 126.787)
(-11.336 807.051 126.774)
(-11.4794 806.815 126.761)
(-11.6171 806.578 126.749)
(-11.7493 806.338 126.737)
(-11.876 806.098 126.725)
(-11.9973 805.856 126.713)
(-12.1131 805.612 126.702)
(-12.2235 805.367 126.692)
(-12.3286 805.121 126.682)
(-12.4284 804.874 126.672)
(-12.5229 804.626 126.662)
(-12.6121 804.377 126.654)
(-12.6961 804.127 126.645)
(-12.775 803.876 126.637)
(-12.8487 803.624 126.63)
(-12.9172 803.372 126.623)
(-12.9806 803.119 126.616)
(-13.039 802.865 126.61)
(-13.0923 802.61 126.605)
(-13.1405 802.356 126.6)
(-13.1837 802.1 126.595)
(-13.2219 801.845 126.591)
(-13.2551 801.589 126.588)
(-13.2834 801.332 126.585)
(-13.3066 801.076 126.582)
(-13.3249 800.819 126.581)
(-13.3382 800.562 126.579)
(-13.3465 800.305 126.578)
(-13.3499 800.047 126.578)
(-13.3483 799.79 126.578)
(-13.3418 799.533 126.579)
(-13.3303 799.276 126.58)
(-13.3139 799.019 126.582)
(-13.2925 798.762 126.584)
(-13.2661 798.506 126.587)
(-13.2347 798.25 126.59)
(-13.1984 797.994 126.594)
(-13.157 797.738 126.598)
(-13.1106 797.483 126.603)
(-13.0591 797.229 126.608)
(-13.0027 796.974 126.614)
(-12.9411 796.721 126.62)
(-12.8744 796.468 126.627)
(-12.8026 796.216 126.634)
(-12.7256 795.965 126.642)
(-12.6435 795.715 126.65)
(-12.5562 795.465 126.659)
(-12.4636 795.216 126.668)
(-12.3658 794.969 126.678)
(-12.2626 794.723 126.688)
(-12.1542 794.477 126.698)
(-12.0403 794.233 126.709)
(-11.9211 793.991 126.72)
(-11.7963 793.75 126.732)
(-11.6661 793.51 126.744)
(-11.5304 793.271 126.757)
(-11.389 793.035 126.769)
(-11.2421 792.8 126.783)
(-11.0894 792.567 126.796)
(-10.931 792.336 126.81)
(-10.7668 792.107 126.824)
(-10.5968 791.88 126.838)
(-10.4209 791.656 126.853)
(-10.2391 791.434 126.868)
(-10.0513 791.214 126.882)
(-9.85744 790.997 126.898)
(-9.65748 790.783 126.913)
(-9.45136 790.572 126.929)
(-9.23904 790.364 126.944)
(-9.02049 790.159 126.96)
(-8.79567 789.957 126.976)
(-8.56454 789.759 126.992)
(-8.32708 789.565 127.007)
(-8.08326 789.375 127.023)
(-7.83305 789.19 127.039)
(-7.57644 789.008 127.054)
(-7.31339 788.831 127.07)
(-7.0439 788.659 127.085)
(-6.76797 788.493 127.1)
(-6.48567 788.331 127.115)
(-6.19708 788.175 127.129)
(-5.9023 788.026 127.143)
(-5.60142 787.882 127.157)
(-5.29455 787.745 127.17)
(-4.9818 787.614 127.183)
(-4.66329 787.491 127.195)
(-4.33905 787.375 127.206)
(-4.00925 787.266 127.217)
(-3.67427 787.166 127.227)
(-3.33449 787.073 127.236)
(-2.99032 786.989 127.245)
(-2.64216 786.914 127.253)
(-2.29044 786.848 127.259)
(-1.93556 786.791 127.265)
(-1.57797 786.744 127.27)
(-1.21811 786.706 127.274)
(-0.85641 786.677 127.277)
(-0.493329 786.659 127.279)
(-0.246807 786.652 127.28)
(-3.11746e-14 786.65 127.28)
(0.364145 786.655 127.28)
(0.72752 786.67 127.278)
(1.08967 786.695 127.275)
(1.45015 786.729 127.272)
(1.80851 786.773 127.267)