/*--------------------------------*- C++ -*----------------------------------*\
  =========                 |
  \\      /  F ield         | OpenFOAM: The Open Source CFD Toolbox
   \\    /   O peration     | Website:  https://openfoam.org
    \\  /    A nd           | Version:  10
     \\/     M anipulation  |
\*---------------------------------------------------------------------------*/
FoamFile
{
    format      ascii;
    class       extendedFeatureEdgeMesh;
    location    "constant/extendedFeatureEdgeMesh";
    object      pressure.extendedFeatureEdgeMesh;
}
// * * * * * * * * * * * * * * * * * * * * * * * * * * * * * * * * * * * * * //

// points

4809
(
(13.35 800 228.55)
(13.345 800.366 228.55)
(13.3299 800.732 228.55)
(13.3048 801.098 228.55)
(13.2697 801.462 228.55)
(13.2246 801.826 228.55)
(13.1695 802.188 228.55)
(13.1045 802.548 228.55)
(13.0297 802.907 228.55)
(12.945 803.263 228.55)
(12.8506 803.617 228.55)
(12.7466 803.968 228.55)
(12.6329 804.317 228.55)
(12.5097 804.661 228.55)
(12.3771 805.003 228.55)
(12.2352 805.341 228.55)
(12.0841 805.674 228.55)
(11.9239 806.004 228.55)
(11.7547 806.328 228.55)
(11.5767 806.648 228.55)
(11.3899 806.964 228.55)
(11.1946 807.273 228.55)
(10.9908 807.578 228.55)
(10.7788 807.877 228.55)
(10.5587 808.169 228.55)
(10.3306 808.456 228.55)
(10.0947 808.736 228.55)
(9.85124 809.01 228.55)
(9.60036 809.277 228.55)
(9.34225 809.536 228.55)
(9.07711 809.789 228.55)
(8.80513 810.034 228.55)
(8.52653 810.272 228.55)
(8.24151 810.502 228.55)
(7.95029 810.724 228.55)
(7.65308 810.939 228.55)
(7.35011 811.144 228.55)
(7.0416 811.342 228.55)
(6.7278 811.531 228.55)
(6.40893 811.711 228.55)
(6.08524 811.882 228.55)
(5.75696 812.045 228.55)
(5.42436 812.198 228.55)
(5.08767 812.343 228.55)
(4.74715 812.477 228.55)
(4.40305 812.603 228.55)
(4.05564 812.719 228.55)
(3.70518 812.826 228.55)
(3.35193 812.922 228.55)
(2.99616 813.009 228.55)
(2.63813 813.087 228.55)
(2.27811 813.154 228.55)
(1.91638 813.212 228.55)
(1.55321 813.259 228.55)
(1.18887 813.297 228.55)
(0.82363 813.325 228.55)
(0.457773 813.342 228.55)
(0.0915719 813.35 228.55)
(-0.274698 813.347 228.55)
(-0.640762 813.335 228.55)
(-1.00634 813.312 228.55)
(-1.37117 813.279 228.55)
(-1.73496 813.237 228.55)
(-2.09744 813.184 228.55)
(-2.45835 813.122 228.55)
(-2.81741 813.049 228.55)
(-3.17434 812.967 228.55)
(-3.52889 812.875 228.55)
(-3.88078 812.773 228.55)
(-4.22974 812.662 228.55)
(-4.57553 812.541 228.55)
(-4.91787 812.411 228.55)
(-5.25651 812.272 228.55)
(-5.59119 812.123 228.55)
(-5.92166 811.965 228.55)
(-6.24767 811.798 228.55)
(-6.56898 811.622 228.55)
(-6.88535 811.437 228.55)
(-7.19653 811.244 228.55)
(-7.5023 811.043 228.55)
(-7.80242 810.833 228.55)
(-8.09666 810.615 228.55)
(-8.38481 810.388 228.55)
(-8.66665 810.154 228.55)
(-8.94196 809.913 228.55)
(-9.21055 809.664 228.55)
(-9.4722 809.407 228.55)
(-9.72672 809.144 228.55)
(-9.97391 808.874 228.55)
(-10.2136 808.597 228.55)
(-10.4456 808.313 228.55)
(-10.6697 808.024 228.55)
(-10.8858 807.728 228.55)
(-11.0938 807.426 228.55)
(-11.2933 807.119 228.55)
(-11.4844 806.807 228.55)
(-11.6668 806.489 228.55)
(-11.8404 806.167 228.55)
(-12.0051 805.839 228.55)
(-12.1608 805.508 228.55)
(-12.3074 805.172 228.55)
(-12.4446 804.833 228.55)
(-12.5725 804.489 228.55)
(-12.6909 804.143 228.55)
(-12.7998 803.793 228.55)
(-12.899 803.44 228.55)
(-12.9886 803.085 228.55)
(-13.0683 802.728 228.55)
(-13.1383 802.368 228.55)
(-13.1983 802.007 228.55)
(-13.2484 801.644 228.55)
(-13.2885 801.28 228.55)
(-13.3186 800.915 228.55)
(-13.3387 800.549 228.55)
(-13.3487 800.183 228.55)
(-13.3487 799.817 228.55)
(-13.3387 799.451 228.55)
(-13.3186 799.085 228.55)
(-13.2885 798.72 228.55)
(-13.2484 798.356 228.55)
(-13.1983 797.993 228.55)
(-13.1383 797.632 228.55)
(-13.0683 797.272 228.55)
(-12.9886 796.915 228.55)
(-12.899 796.56 228.55)
(-12.7998 796.207 228.55)
(-12.6909 795.857 228.55)
(-12.5725 795.511 228.55)
(-12.4446 795.167 228.55)
(-12.3074 794.828 228.55)
(-12.1608 794.492 228.55)
(-12.0051 794.161 228.55)
(-11.8404 793.833 228.55)
(-11.6668 793.511 228.55)
(-11.4844 793.193 228.55)
(-11.2933 792.881 228.55)
(-11.0938 792.574 228.55)
(-10.8858 792.272 228.55)
(-10.6697 791.976 228.55)
(-10.4456 791.687 228.55)
(-10.2136 791.403 228.55)
(-9.97391 791.126 228.55)
(-9.72672 790.856 228.55)
(-9.4722 790.593 228.55)
(-9.21055 790.336 228.55)
(-8.94196 790.087 228.55)
(-8.66665 789.846 228.55)
(-8.38481 789.612 228.55)
(-8.09666 789.385 228.55)
(-7.80242 789.167 228.55)
(-7.5023 788.957 228.55)
(-7.19653 788.756 228.55)
(-6.88535 788.563 228.55)
(-6.56898 788.378 228.55)
(-6.24767 788.202 228.55)
(-5.92166 788.035 228.55)
(-5.59119 787.877 228.55)
(-5.25651 787.728 228.55)
(-4.91787 787.589 228.55)
(-4.57553 787.459 228.55)
(-4.22974 787.338 228.55)
(-3.88078 787.227 228.55)
(-3.52889 787.125 228.55)
(-3.17434 787.033 228.55)
(-2.81741 786.951 228.55)
(-2.45835 786.878 228.55)
(-2.09744 786.816 228.55)
(-1.73496 786.763 228.55)
(-1.37117 786.721 228.55)
(-1.00634 786.688 228.55)
(-0.640762 786.665 228.55)
(-0.274698 786.653 228.55)
(0.0915719 786.65 228.55)
(0.457773 786.658 228.55)
(0.82363 786.675 228.55)
(1.18887 786.703 228.55)
(1.55321 786.741 228.55)
(1.91638 786.788 228.55)
(2.27811 786.846 228.55)
(2.63813 786.913 228.55)
(2.99616 786.991 228.55)
(3.35193 787.078 228.55)
(3.70518 787.174 228.55)
(4.05564 787.281 228.55)
(4.40305 787.397 228.55)
(4.74715 787.523 228.55)
(5.08767 787.657 228.55)
(5.42436 787.802 228.55)
(5.75696 787.955 228.55)
(6.08524 788.118 228.55)
(6.40893 788.289 228.55)
(6.7278 788.469 228.55)
(7.0416 788.658 228.55)
(7.35011 788.856 228.55)
(7.65308 789.061 228.55)
(7.95029 789.276 228.55)
(8.24151 789.498 228.55)
(8.52653 789.728 228.55)
(8.80513 789.966 228.55)
(9.07711 790.211 228.55)
(9.34225 790.464 228.55)
(9.60036 790.723 228.55)
(9.85124 790.99 228.55)
(10.0947 791.264 228.55)
(10.3306 791.544 228.55)
(10.5587 791.831 228.55)
(10.7788 792.123 228.55)
(10.9908 792.422 228.55)
(11.1946 792.727 228.55)
(11.3899 793.036 228.55)
(11.5767 793.352 228.55)
(11.7547 793.672 228.55)
(11.9239 793.996 228.55)
(12.0841 794.326 228.55)
(12.2352 794.659 228.55)
(12.3771 794.997 228.55)
(12.5097 795.339 228.55)
(12.6329 795.683 228.55)
(12.7466 796.032 228.55)
(12.8506 796.383 228.55)
(12.945 796.737 228.55)
(13.0297 797.093 228.55)
(13.1045 797.452 228.55)
(13.1695 797.812 228.55)
(13.2246 798.174 228.55)
(13.2697 798.538 228.55)
(13.3048 798.902 228.55)
(13.3299 799.268 228.55)
(13.345 799.634 228.55)
(-6.51293 793.167 228.55)
(-6.69794 793.348 228.55)
(-6.87792 793.534 228.55)
(-6.32301 792.99 228.55)
(-7.05271 793.725 228.55)
(-6.12833 792.82 228.55)
(-7.2222 793.921 228.55)
(-5.92904 792.654 228.55)
(-7.38625 794.122 228.55)
(-5.72528 792.494 228.55)
(-7.54474 794.326 228.55)
(-5.51721 792.34 228.55)
(-7.69756 794.536 228.55)
(-5.305 792.192 228.55)
(-7.84457 794.749 228.55)
(-5.08878 792.049 228.55)
(-7.98569 794.966 228.55)
(-4.86874 791.912 228.55)
(-8.12079 795.187 228.55)
(-4.64503 791.782 228.55)
(-8.24977 795.411 228.55)
(-4.41783 791.658 228.55)
(-8.37255 795.64 228.55)
(-4.1873 791.539 228.55)
(-8.48903 795.871 228.55)
(-3.95362 791.428 228.55)
(-8.59911 796.105 228.55)
(-3.71696 791.323 228.55)
(-8.70272 796.343 228.55)
(-3.4775 791.224 228.55)
(-8.79978 796.583 228.55)
(-3.23543 791.132 228.55)
(-8.89022 796.826 228.55)
(-2.99092 791.046 228.55)
(-8.97396 797.071 228.55)
(-2.74416 790.968 228.55)
(-9.05095 797.318 228.55)
(-2.49533 790.896 228.55)
(-9.12113 797.567 228.55)
(-2.24463 790.831 228.55)
(-9.18444 797.818 228.55)
(-1.99223 790.773 228.55)
(-9.24083 798.071 228.55)
(-1.73834 790.721 228.55)
(-9.29027 798.325 228.55)
(-1.48314 790.677 228.55)
(-9.33272 798.581 228.55)
(-1.22682 790.64 228.55)
(-9.36814 798.837 228.55)
(-0.969574 790.61 228.55)
(-9.39651 799.095 228.55)
(-0.711602 790.587 228.55)
(-9.4178 799.353 228.55)
(-0.453093 790.571 228.55)
(-9.43201 799.612 228.55)
(-0.194244 790.562 228.55)
(-9.43911 799.87 228.55)
(0.064752 790.56 228.55)
(-9.43911 800.13 228.55)
(0.323699 790.566 228.55)
(-9.43201 800.388 228.55)
(0.582402 790.578 228.55)
(-9.4178 800.647 228.55)
(0.840667 790.597 228.55)
(-9.39651 800.905 228.55)
(1.0983 790.624 228.55)
(-9.36814 801.163 228.55)
(1.3551 790.658 228.55)
(-9.33272 801.419 228.55)
(1.61089 790.698 228.55)
(-9.29027 801.675 228.55)
(1.86546 790.746 228.55)
(-9.24083 801.929 228.55)
(2.11863 790.801 228.55)
(-9.18444 802.182 228.55)
(2.3702 790.862 228.55)
(-9.12113 802.433 228.55)
(2.61999 790.931 228.55)
(-9.05095 802.682 228.55)
(2.86781 791.006 228.55)
(-8.97396 802.929 228.55)
(3.11347 791.088 228.55)
(-8.89022 803.174 228.55)
(3.35678 791.177 228.55)
(-8.79978 803.417 228.55)
(3.59757 791.272 228.55)
(-8.70272 803.657 228.55)
(3.83565 791.374 228.55)
(-8.59911 803.895 228.55)
(4.07084 791.483 228.55)
(-8.48903 804.129 228.55)
(4.30297 791.598 228.55)
(-8.37255 804.36 228.55)
(4.53186 791.719 228.55)
(-8.24977 804.589 228.55)
(4.75734 791.846 228.55)
(-8.12079 804.813 228.55)
(4.97923 791.98 228.55)
(-7.98569 805.034 228.55)
(5.19738 792.12 228.55)
(-7.84457 805.251 228.55)
(5.41161 792.265 228.55)
(-7.69756 805.464 228.55)
(5.62178 792.417 228.55)
(-7.54474 805.674 228.55)
(5.82771 792.574 228.55)
(-7.38625 805.878 228.55)
(6.02925 792.736 228.55)
(-7.2222 806.079 228.55)
(6.22625 792.904 228.55)
(-7.05271 806.275 228.55)
(6.41857 793.078 228.55)
(-6.87792 806.466 228.55)
(6.60606 793.257 228.55)
(-6.69794 806.652 228.55)
(-6.51293 806.833 228.55)
(6.78857 793.44 228.55)
(-6.32301 807.01 228.55)
(6.96597 793.629 228.55)
(7.13813 793.823 228.55)
(-6.12833 807.18 228.55)
(-5.92904 807.346 228.55)
(7.30491 794.021 228.55)
(-5.72528 807.506 228.55)
(7.4662 794.223 228.55)
(7.62187 794.43 228.55)
(-5.51721 807.66 228.55)
(7.7718 794.642 228.55)
(-5.305 807.808 228.55)
(7.91587 794.857 228.55)
(-5.08878 807.951 228.55)
(8.05399 795.076 228.55)
(-4.86874 808.088 228.55)
(-4.64503 808.218 228.55)
(8.18605 795.299 228.55)
(8.31194 795.525 228.55)
(-4.41783 808.342 228.55)
(8.43158 795.755 228.55)
(8.54487 795.988 228.55)
(-4.1873 808.461 228.55)
(-3.95362 808.572 228.55)
(-3.71696 808.677 228.55)
(8.65173 796.224 228.55)
(8.75208 796.462 228.55)
(-3.4775 808.776 228.55)
(8.84583 796.704 228.55)
(-3.23543 808.868 228.55)
(8.93293 796.948 228.55)
(-2.99092 808.954 228.55)
(9.01331 797.194 228.55)
(-2.74416 809.032 228.55)
(9.08689 797.442 228.55)
(-2.49533 809.104 228.55)
(-2.24463 809.169 228.55)
(9.15364 797.693 228.55)
(-1.99223 809.227 228.55)
(9.2135 797.945 228.55)
(-1.73834 809.279 228.55)
(9.26642 798.198 228.55)
(9.31237 798.453 228.55)
(9.35131 798.709 228.55)
(-1.48314 809.323 228.55)
(9.3832 798.966 228.55)
(-1.22682 809.36 228.55)
(-0.969574 809.39 228.55)
(9.40804 799.224 228.55)
(-0.711602 809.413 228.55)
(9.42579 799.482 228.55)
(9.43645 799.741 228.55)
(-0.453093 809.429 228.55)
(-0.194244 809.438 228.55)
(9.44 800 228.55)
(9.43645 800.259 228.55)
(0.064752 809.44 228.55)
(0.323699 809.434 228.55)
(0.582402 809.422 228.55)
(9.42579 800.518 228.55)
(9.40804 800.776 228.55)
(0.840667 809.403 228.55)
(9.3832 801.034 228.55)
(1.0983 809.376 228.55)
(9.35131 801.291 228.55)
(1.3551 809.342 228.55)
(1.61089 809.302 228.55)
(9.31237 801.547 228.55)
(9.26642 801.802 228.55)
(9.2135 802.055 228.55)
(1.86546 809.254 228.55)
(2.11863 809.199 228.55)
(9.15364 802.307 228.55)
(9.08689 802.558 228.55)
(2.3702 809.138 228.55)
(2.61999 809.069 228.55)
(2.86781 808.994 228.55)
(9.01331 802.806 228.55)
(8.93293 803.052 228.55)
(3.11347 808.912 228.55)
(8.84583 803.296 228.55)
(3.35678 808.823 228.55)
(8.75208 803.538 228.55)
(3.59757 808.728 228.55)
(8.65173 803.776 228.55)
(8.54487 804.012 228.55)
(3.83565 808.626 228.55)
(8.43158 804.245 228.55)
(4.07084 808.517 228.55)
(4.30297 808.402 228.55)
(8.31194 804.475 228.55)
(4.53186 808.281 228.55)
(8.18605 804.701 228.55)
(8.05399 804.924 228.55)
(4.75734 808.154 228.55)
(4.97923 808.02 228.55)
(7.91587 805.143 228.55)
(5.19738 807.88 228.55)
(5.41161 807.735 228.55)
(7.7718 805.358 228.55)
(7.62187 805.57 228.55)
(7.4662 805.777 228.55)
(5.62178 807.583 228.55)
(7.30491 805.979 228.55)
(5.82771 807.426 228.55)
(7.13813 806.177 228.55)
(6.02925 807.264 228.55)
(6.22625 807.096 228.55)
(6.96597 806.371 228.55)
(6.78857 806.56 228.55)
(6.41857 806.922 228.55)
(6.60606 806.743 228.55)
(13.345 800.366 258.55)
(13.35 800 258.55)
(13.3299 800.732 258.55)
(13.3048 801.098 258.55)
(13.2697 801.462 258.55)
(13.2246 801.826 258.55)
(13.1695 802.188 258.55)
(13.1045 802.548 258.55)
(13.0297 802.907 258.55)
(12.945 803.263 258.55)
(12.8506 803.617 258.55)
(12.7466 803.968 258.55)
(12.6329 804.317 258.55)
(12.5097 804.661 258.55)
(12.3771 805.003 258.55)
(12.2352 805.341 258.55)
(12.0841 805.674 258.55)
(11.9239 806.004 258.55)
(11.7547 806.328 258.55)
(11.5767 806.648 258.55)
(11.3899 806.964 258.55)
(11.1946 807.273 258.55)
(10.9908 807.578 258.55)
(10.7788 807.877 258.55)
(10.5587 808.169 258.55)
(10.3306 808.456 258.55)
(10.0947 808.736 258.55)
(9.85124 809.01 258.55)
(9.60036 809.277 258.55)
(9.34225 809.536 258.55)
(9.07711 809.789 258.55)
(8.80513 810.034 258.55)
(8.52653 810.272 258.55)
(8.24151 810.502 258.55)
(7.95029 810.724 258.55)
(7.65308 810.939 258.55)
(7.35011 811.144 258.55)
(7.0416 811.342 258.55)
(6.7278 811.531 258.55)
(6.40893 811.711 258.55)
(6.08524 811.882 258.55)
(5.75696 812.045 258.55)
(5.42436 812.198 258.55)
(5.08767 812.343 258.55)
(4.74715 812.477 258.55)
(4.40305 812.603 258.55)
(4.05564 812.719 258.55)
(3.70518 812.826 258.55)
(3.35193 812.922 258.55)
(2.99616 813.009 258.55)
(2.63813 813.087 258.55)
(2.27811 813.154 258.55)
(1.91638 813.212 258.55)
(1.55321 813.259 258.55)
(1.18887 813.297 258.55)
(0.82363 813.325 258.55)
(0.457773 813.342 258.55)
(0.0915719 813.35 258.55)
(-0.274698 813.347 258.55)
(-0.640762 813.335 258.55)
(-1.00634 813.312 258.55)
(-1.37117 813.279 258.55)
(-1.73496 813.237 258.55)
(-2.09744 813.184 258.55)
(-2.45835 813.122 258.55)
(-2.81741 813.049 258.55)
(-3.17434 812.967 258.55)
(-3.52889 812.875 258.55)
(-3.88078 812.773 258.55)
(-4.22974 812.662 258.55)
(-4.57553 812.541 258.55)
(-4.91787 812.411 258.55)
(-5.25651 812.272 258.55)
(-5.59119 812.123 258.55)
(-5.92166 811.965 258.55)
(-6.24767 811.798 258.55)
(-6.56898 811.622 258.55)
(-6.88535 811.437 258.55)
(-7.19653 811.244 258.55)
(-7.5023 811.043 258.55)
(-7.80242 810.833 258.55)
(-8.09666 810.615 258.55)
(-8.38481 810.388 258.55)
(-8.66665 810.154 258.55)
(-8.94196 809.913 258.55)
(-9.21055 809.664 258.55)
(-9.4722 809.407 258.55)
(-9.72672 809.144 258.55)
(-9.97391 808.874 258.55)
(-10.2136 808.597 258.55)
(-10.4456 808.313 258.55)
(-10.6697 808.024 258.55)
(-10.8858 807.728 258.55)
(-11.0938 807.426 258.55)
(-11.2933 807.119 258.55)
(-11.4844 806.807 258.55)
(-11.6668 806.489 258.55)
(-11.8404 806.167 258.55)
(-12.0051 805.839 258.55)
(-12.1608 805.508 258.55)
(-12.3074 805.172 258.55)
(-12.4446 804.833 258.55)
(-12.5725 804.489 258.55)
(-12.6909 804.143 258.55)
(-12.7998 803.793 258.55)
(-12.899 803.44 258.55)
(-12.9886 803.085 258.55)
(-13.0683 802.728 258.55)
(-13.1383 802.368 258.55)
(-13.1983 802.007 258.55)
(-13.2484 801.644 258.55)
(-13.2885 801.28 258.55)
(-13.3186 800.915 258.55)
(-13.3387 800.549 258.55)
(-13.3487 800.183 258.55)
(-13.3487 799.817 258.55)
(-13.3387 799.451 258.55)
(-13.3186 799.085 258.55)
(-13.2885 798.72 258.55)
(-13.2484 798.356 258.55)
(-13.1983 797.993 258.55)
(-13.1383 797.632 258.55)
(-13.0683 797.272 258.55)
(-12.9886 796.915 258.55)
(-12.899 796.56 258.55)
(-12.7998 796.207 258.55)
(-12.6909 795.857 258.55)
(-12.5725 795.511 258.55)
(-12.4446 795.167 258.55)
(-12.3074 794.828 258.55)
(-12.1608 794.492 258.55)
(-12.0051 794.161 258.55)
(-11.8404 793.833 258.55)
(-11.6668 793.511 258.55)
(-11.4844 793.193 258.55)
(-11.2933 792.881 258.55)
(-11.0938 792.574 258.55)
(-10.8858 792.272 258.55)
(-10.6697 791.976 258.55)
(-10.4456 791.687 258.55)
(-10.2136 791.403 258.55)
(-9.97391 791.126 258.55)
(-9.72672 790.856 258.55)
(-9.4722 790.593 258.55)
(-9.21055 790.336 258.55)
(-8.94196 790.087 258.55)
(-8.66665 789.846 258.55)
(-8.38481 789.612 258.55)
(-8.09666 789.385 258.55)
(-7.80242 789.167 258.55)
(-7.5023 788.957 258.55)
(-7.19653 788.756 258.55)
(-6.88535 788.563 258.55)
(-6.56898 788.378 258.55)
(-6.24767 788.202 258.55)
(-5.92166 788.035 258.55)
(-5.59119 787.877 258.55)
(-5.25651 787.728 258.55)
(-4.91787 787.589 258.55)
(-4.57553 787.459 258.55)
(-4.22974 787.338 258.55)
(-3.88078 787.227 258.55)
(-3.52889 787.125 258.55)
(-3.17434 787.033 258.55)
(-2.81741 786.951 258.55)
(-2.45835 786.878 258.55)
(-2.09744 786.816 258.55)
(-1.73496 786.763 258.55)
(-1.37117 786.721 258.55)
(-1.00634 786.688 258.55)
(-0.640762 786.665 258.55)
(-0.274698 786.653 258.55)
(0.0915719 786.65 258.55)
(0.457773 786.658 258.55)
(0.82363 786.675 258.55)
(1.18887 786.703 258.55)
(1.55321 786.741 258.55)
(1.91638 786.788 258.55)
(2.27811 786.846 258.55)
(2.63813 786.913 258.55)
(2.99616 786.991 258.55)
(3.35193 787.078 258.55)
(3.70518 787.174 258.55)
(4.05564 787.281 258.55)
(4.40305 787.397 258.55)
(4.74715 787.523 258.55)
(5.08767 787.657 258.55)
(5.42436 787.802 258.55)
(5.75696 787.955 258.55)
(6.08524 788.118 258.55)
(6.40893 788.289 258.55)
(6.7278 788.469 258.55)
(7.0416 788.658 258.55)
(7.35011 788.856 258.55)
(7.65308 789.061 258.55)
(7.95029 789.276 258.55)
(8.24151 789.498 258.55)
(8.52653 789.728 258.55)
(8.80513 789.966 258.55)
(9.07711 790.211 258.55)
(9.34225 790.464 258.55)
(9.60036 790.723 258.55)
(9.85124 790.99 258.55)
(10.0947 791.264 258.55)
(10.3306 791.544 258.55)
(10.5587 791.831 258.55)
(10.7788 792.123 258.55)
(10.9908 792.422 258.55)
(11.1946 792.727 258.55)
(11.3899 793.036 258.55)
(11.5767 793.352 258.55)
(11.7547 793.672 258.55)
(11.9239 793.996 258.55)
(12.0841 794.326 258.55)
(12.2352 794.659 258.55)
(12.3771 794.997 258.55)
(12.5097 795.339 258.55)
(12.6329 795.683 258.55)
(12.7466 796.032 258.55)
(12.8506 796.383 258.55)
(12.945 796.737 258.55)
(13.0297 797.093 258.55)
(13.1045 797.452 258.55)
(13.1695 797.812 258.55)
(13.2246 798.174 258.55)
(13.2697 798.538 258.55)
(13.3048 798.902 258.55)
(13.3299 799.268 258.55)
(13.345 799.634 258.55)
(-6.51293 793.167 258.55)
(-6.69794 793.348 258.55)
(-6.87792 793.534 258.55)
(-6.32301 792.99 258.55)
(-7.05271 793.725 258.55)
(-6.12833 792.82 258.55)
(-7.2222 793.921 258.55)
(-5.92904 792.654 258.55)
(-7.38625 794.122 258.55)
(-5.72528 792.494 258.55)
(-7.54474 794.326 258.55)
(-5.51721 792.34 258.55)
(-7.69756 794.536 258.55)
(-5.305 792.192 258.55)
(-7.84457 794.749 258.55)
(-5.08878 792.049 258.55)
(-7.98569 794.966 258.55)
(-4.86874 791.912 258.55)
(-8.12079 795.187 258.55)
(-4.64503 791.782 258.55)
(-8.24977 795.411 258.55)
(-4.41783 791.658 258.55)
(-8.37255 795.64 258.55)
(-4.1873 791.539 258.55)
(-8.48903 795.871 258.55)
(-3.95362 791.428 258.55)
(-8.59911 796.105 258.55)
(-3.71696 791.323 258.55)
(-8.70272 796.343 258.55)
(-3.4775 791.224 258.55)
(-8.79978 796.583 258.55)
(-3.23543 791.132 258.55)
(-8.89022 796.826 258.55)
(-2.99092 791.046 258.55)
(-8.97396 797.071 258.55)
(-2.74416 790.968 258.55)
(-9.05095 797.318 258.55)
(-2.49533 790.896 258.55)
(-9.12113 797.567 258.55)
(-2.24463 790.831 258.55)
(-9.18444 797.818 258.55)
(-1.99223 790.773 258.55)
(-9.24083 798.071 258.55)
(-1.73834 790.721 258.55)
(-9.29027 798.325 258.55)
(-1.48314 790.677 258.55)
(-9.33272 798.581 258.55)
(-1.22682 790.64 258.55)
(-9.36814 798.837 258.55)
(-0.969574 790.61 258.55)
(-9.39651 799.095 258.55)
(-0.711602 790.587 258.55)
(-9.4178 799.353 258.55)
(-0.453093 790.571 258.55)
(-9.43201 799.612 258.55)
(-0.194244 790.562 258.55)
(-9.43911 799.87 258.55)
(0.064752 790.56 258.55)
(-9.43911 800.13 258.55)
(0.323699 790.566 258.55)
(-9.43201 800.388 258.55)
(0.582402 790.578 258.55)
(-9.4178 800.647 258.55)
(0.840667 790.597 258.55)
(-9.39651 800.905 258.55)
(1.0983 790.624 258.55)
(-9.36814 801.163 258.55)
(1.3551 790.658 258.55)
(-9.33272 801.419 258.55)
(1.61089 790.698 258.55)
(-9.29027 801.675 258.55)
(1.86546 790.746 258.55)
(-9.24083 801.929 258.55)
(2.11863 790.801 258.55)
(-9.18444 802.182 258.55)
(2.3702 790.862 258.55)
(-9.12113 802.433 258.55)
(2.61999 790.931 258.55)
(-9.05095 802.682 258.55)
(2.86781 791.006 258.55)
(-8.97396 802.929 258.55)
(3.11347 791.088 258.55)
(-8.89022 803.174 258.55)
(3.35678 791.177 258.55)
(-8.79978 803.417 258.55)
(3.59757 791.272 258.55)
(-8.70272 803.657 258.55)
(3.83565 791.374 258.55)
(-8.59911 803.895 258.55)
(4.07084 791.483 258.55)
(-8.48903 804.129 258.55)
(4.30297 791.598 258.55)
(-8.37255 804.36 258.55)
(4.53186 791.719 258.55)
(-8.24977 804.589 258.55)
(4.75734 791.846 258.55)
(-8.12079 804.813 258.55)
(4.97923 791.98 258.55)
(-7.98569 805.034 258.55)
(5.19738 792.12 258.55)
(-7.84457 805.251 258.55)
(5.41161 792.265 258.55)
(-7.69756 805.464 258.55)
(5.62178 792.417 258.55)
(-7.54474 805.674 258.55)
(5.82771 792.574 258.55)
(-7.38625 805.878 258.55)
(6.02925 792.736 258.55)
(-7.2222 806.079 258.55)
(6.22625 792.904 258.55)
(-7.05271 806.275 258.55)
(6.41857 793.078 258.55)
(-6.87792 806.466 258.55)
(6.60606 793.257 258.55)
(-6.69794 806.652 258.55)
(-6.51293 806.833 258.55)
(6.78857 793.44 258.55)
(-6.32301 807.01 258.55)
(6.96597 793.629 258.55)
(7.13813 793.823 258.55)
(-6.12833 807.18 258.55)
(-5.92904 807.346 258.55)
(7.30491 794.021 258.55)
(-5.72528 807.506 258.55)
(7.4662 794.223 258.55)
(7.62187 794.43 258.55)
(-5.51721 807.66 258.55)
(7.7718 794.642 258.55)
(-5.305 807.808 258.55)
(7.91587 794.857 258.55)
(-5.08878 807.951 258.55)
(8.05399 795.076 258.55)
(-4.86874 808.088 258.55)
(-4.64503 808.218 258.55)
(8.18605 795.299 258.55)
(8.31194 795.525 258.55)
(-4.41783 808.342 258.55)
(8.43158 795.755 258.55)
(8.54487 795.988 258.55)
(-4.1873 808.461 258.55)
(-3.95362 808.572 258.55)
(-3.71696 808.677 258.55)
(8.65173 796.224 258.55)
(8.75208 796.462 258.55)
(-3.4775 808.776 258.55)
(8.84583 796.704 258.55)
(-3.23543 808.868 258.55)
(8.93293 796.948 258.55)
(-2.99092 808.954 258.55)
(9.01331 797.194 258.55)
(-2.74416 809.032 258.55)
(9.08689 797.442 258.55)
(-2.49533 809.104 258.55)
(-2.24463 809.169 258.55)
(9.15364 797.693 258.55)
(-1.99223 809.227 258.55)
(9.2135 797.945 258.55)
(-1.73834 809.279 258.55)
(9.26642 798.198 258.55)
(9.31237 798.453 258.55)
(9.35131 798.709 258.55)
(-1.48314 809.323 258.55)
(9.3832 798.966 258.55)
(-1.22682 809.36 258.55)
(-0.969574 809.39 258.55)
(9.40804 799.224 258.55)
(-0.711602 809.413 258.55)
(9.42579 799.482 258.55)
(9.43645 799.741 258.55)
(-0.453093 809.429 258.55)
(-0.194244 809.438 258.55)
(9.44 800 258.55)
(9.43645 800.259 258.55)
(0.064752 809.44 258.55)
(0.323699 809.434 258.55)
(0.582402 809.422 258.55)
(9.42579 800.518 258.55)
(9.40804 800.776 258.55)
(0.840667 809.403 258.55)
(9.3832 801.034 258.55)
(1.0983 809.376 258.55)
(9.35131 801.291 258.55)
(1.3551 809.342 258.55)
(1.61089 809.302 258.55)
(9.31237 801.547 258.55)
(9.26642 801.802 258.55)
(9.2135 802.055 258.55)
(1.86546 809.254 258.55)
(2.11863 809.199 258.55)
(9.15364 802.307 258.55)
(9.08689 802.558 258.55)
(2.3702 809.138 258.55)
(2.61999 809.069 258.55)
(2.86781 808.994 258.55)
(9.01331 802.806 258.55)
(8.93293 803.052 258.55)
(3.11347 808.912 258.55)
(8.84583 803.296 258.55)
(3.35678 808.823 258.55)
(8.75208 803.538 258.55)
(3.59757 808.728 258.55)
(8.65173 803.776 258.55)
(8.54487 804.012 258.55)
(3.83565 808.626 258.55)
(8.43158 804.245 258.55)
(4.07084 808.517 258.55)
(4.30297 808.402 258.55)
(8.31194 804.475 258.55)
(4.53186 808.281 258.55)
(8.18605 804.701 258.55)
(8.05399 804.924 258.55)
(4.75734 808.154 258.55)
(4.97923 808.02 258.55)
(7.91587 805.143 258.55)
(5.19738 807.88 258.55)
(5.41161 807.735 258.55)
(7.7718 805.358 258.55)
(7.62187 805.57 258.55)
(7.4662 805.777 258.55)
(5.62178 807.583 258.55)
(7.30491 805.979 258.55)
(5.82771 807.426 258.55)
(7.13813 806.177 258.55)
(6.02925 807.264 258.55)
(6.22625 807.096 258.55)
(6.96597 806.371 258.55)
(6.78857 806.56 258.55)
(6.41857 806.922 258.55)
(6.60606 806.743 258.55)
(13.345 800.366 153.55)
(13.35 800 153.55)
(13.3299 800.732 153.55)
(13.3048 801.098 153.55)
(13.2697 801.462 153.55)
(13.2246 801.826 153.55)
(13.1695 802.188 153.55)
(13.1045 802.548 153.55)
(13.0297 802.907 153.55)
(12.945 803.263 153.55)
(12.8506 803.617 153.55)
(12.7466 803.968 153.55)
(12.6329 804.317 153.55)
(12.5097 804.661 153.55)
(12.3771 805.003 153.55)
(12.2352 805.341 153.55)
(12.0841 805.674 153.55)
(11.9239 806.004 153.55)
(11.7547 806.328 153.55)
(11.5767 806.648 153.55)
(11.3899 806.964 153.55)
(11.1946 807.273 153.55)
(10.9908 807.578 153.55)
(10.7788 807.877 153.55)
(10.5587 808.169 153.55)
(10.3306 808.456 153.55)
(10.0947 808.736 153.55)
(9.85124 809.01 153.55)
(9.60036 809.277 153.55)
(9.34225 809.536 153.55)
(9.07711 809.789 153.55)
(8.80513 810.034 153.55)
(8.52653 810.272 153.55)
(8.24151 810.502 153.55)
(7.95029 810.724 153.55)
(7.65308 810.939 153.55)
(7.35011 811.144 153.55)
(7.0416 811.342 153.55)
(6.7278 811.531 153.55)
(6.40893 811.711 153.55)
(6.08524 811.882 153.55)
(5.75696 812.045 153.55)
(5.42436 812.198 153.55)
(5.08767 812.343 153.55)
(4.74715 812.477 153.55)
(4.40305 812.603 153.55)
(4.05564 812.719 153.55)
(3.70518 812.826 153.55)
(3.35193 812.922 153.55)
(2.99616 813.009 153.55)
(2.63813 813.087 153.55)
(2.27811 813.154 153.55)
(1.91638 813.212 153.55)
(1.55321 813.259 153.55)
(1.18887 813.297 153.55)
(0.82363 813.325 153.55)
(0.457773 813.342 153.55)
(0.0915719 813.35 153.55)
(-0.274698 813.347 153.55)
(-0.640762 813.335 153.55)
(-1.00634 813.312 153.55)
(-1.37117 813.279 153.55)
(-1.73496 813.237 153.55)
(-2.09744 813.184 153.55)
(-2.45835 813.122 153.55)
(-2.81741 813.049 153.55)
(-3.17434 812.967 153.55)
(-3.52889 812.875 153.55)
(-3.88078 812.773 153.55)
(-4.22974 812.662 153.55)
(-4.57553 812.541 153.55)
(-4.91787 812.411 153.55)
(-5.25651 812.272 153.55)
(-5.59119 812.123 153.55)
(-5.92166 811.965 153.55)
(-6.24767 811.798 153.55)
(-6.56898 811.622 153.55)
(-6.88535 811.437 153.55)
(-7.19653 811.244 153.55)
(-7.5023 811.043 153.55)
(-7.80242 810.833 153.55)
(-8.09666 810.615 153.55)
(-8.38481 810.388 153.55)
(-8.66665 810.154 153.55)
(-8.94196 809.913 153.55)
(-9.21055 809.664 153.55)
(-9.4722 809.407 153.55)
(-9.72672 809.144 153.55)
(-9.97391 808.874 153.55)
(-10.2136 808.597 153.55)
(-10.4456 808.313 153.55)
(-10.6697 808.024 153.55)
(-10.8858 807.728 153.55)
(-11.0938 807.426 153.55)
(-11.2933 807.119 153.55)
(-11.4844 806.807 153.55)
(-11.6668 806.489 153.55)
(-11.8404 806.167 153.55)
(-12.0051 805.839 153.55)
(-12.1608 805.508 153.55)
(-12.3074 805.172 153.55)
(-12.4446 804.833 153.55)
(-12.5725 804.489 153.55)
(-12.6909 804.143 153.55)
(-12.7998 803.793 153.55)
(-12.899 803.44 153.55)
(-12.9886 803.085 153.55)
(-13.0683 802.728 153.55)
(-13.1383 802.368 153.55)
(-13.1983 802.007 153.55)
(-13.2484 801.644 153.55)
(-13.2885 801.28 153.55)
(-13.3186 800.915 153.55)
(-13.3387 800.549 153.55)
(-13.3487 800.183 153.55)
(-13.3487 799.817 153.55)
(-13.3387 799.451 153.55)
(-13.3186 799.085 153.55)
(-13.2885 798.72 153.55)
(-13.2484 798.356 153.55)
(-13.1983 797.993 153.55)
(-13.1383 797.632 153.55)
(-13.0683 797.272 153.55)
(-12.9886 796.915 153.55)
(-12.899 796.56 153.55)
(-12.7998 796.207 153.55)
(-12.6909 795.857 153.55)
(-12.5725 795.511 153.55)
(-12.4446 795.167 153.55)
(-12.3074 794.828 153.55)
(-12.1608 794.492 153.55)
(-12.0051 794.161 153.55)
(-11.8404 793.833 153.55)
(-11.6668 793.511 153.55)
(-11.4844 793.193 153.55)
(-11.2933 792.881 153.55)
(-11.0938 792.574 153.55)
(-10.8858 792.272 153.55)
(-10.6697 791.976 153.55)
(-10.4456 791.687 153.55)
(-10.2136 791.403 153.55)
(-9.97391 791.126 153.55)
(-9.72672 790.856 153.55)
(-9.4722 790.593 153.55)
(-9.21055 790.336 153.55)
(-8.94196 790.087 153.55)
(-8.66665 789.846 153.55)
(-8.38481 789.612 153.55)
(-8.09666 789.385 153.55)
(-7.80242 789.167 153.55)
(-7.5023 788.957 153.55)
(-7.19653 788.756 153.55)
(-6.88535 788.563 153.55)
(-6.56898 788.378 153.55)
(-6.24767 788.202 153.55)
(-5.92166 788.035 153.55)
(-5.59119 787.877 153.55)
(-5.25651 787.728 153.55)
(-4.91787 787.589 153.55)
(-4.57553 787.459 153.55)
(-4.22974 787.338 153.55)
(-3.88078 787.227 153.55)
(-3.52889 787.125 153.55)
(-3.17434 787.033 153.55)
(-2.81741 786.951 153.55)
(-2.45835 786.878 153.55)
(-2.09744 786.816 153.55)
(-1.73496 786.763 153.55)
(-1.37117 786.721 153.55)
(-1.00634 786.688 153.55)
(-0.640762 786.665 153.55)
(-0.274698 786.653 153.55)
(0.0915719 786.65 153.55)
(0.457773 786.658 153.55)
(0.82363 786.675 153.55)
(1.18887 786.703 153.55)
(1.55321 786.741 153.55)
(1.91638 786.788 153.55)
(2.27811 786.846 153.55)
(2.63813 786.913 153.55)
(2.99616 786.991 153.55)
(3.35193 787.078 153.55)
(3.70518 787.174 153.55)
(4.05564 787.281 153.55)
(4.40305 787.397 153.55)
(4.74715 787.523 153.55)
(5.08767 787.657 153.55)
(5.42436 787.802 153.55)
(5.75696 787.955 153.55)
(6.08524 788.118 153.55)
(6.40893 788.289 153.55)
(6.7278 788.469 153.55)
(7.0416 788.658 153.55)
(7.35011 788.856 153.55)
(7.65308 789.061 153.55)
(7.95029 789.276 153.55)
(8.24151 789.498 153.55)
(8.52653 789.728 153.55)
(8.80513 789.966 153.55)
(9.07711 790.211 153.55)
(9.34225 790.464 153.55)
(9.60036 790.723 153.55)
(9.85124 790.99 153.55)
(10.0947 791.264 153.55)
(10.3306 791.544 153.55)
(10.5587 791.831 153.55)
(10.7788 792.123 153.55)
(10.9908 792.422 153.55)
(11.1946 792.727 153.55)
(11.3899 793.036 153.55)
(11.5767 793.352 153.55)
(11.7547 793.672 153.55)
(11.9239 793.996 153.55)
(12.0841 794.326 153.55)
(12.2352 794.659 153.55)
(12.3771 794.997 153.55)
(12.5097 795.339 153.55)
(12.6329 795.683 153.55)
(12.7466 796.032 153.55)
(12.8506 796.383 153.55)
(12.945 796.737 153.55)
(13.0297 797.093 153.55)
(13.1045 797.452 153.55)
(13.1695 797.812 153.55)
(13.2246 798.174 153.55)
(13.2697 798.538 153.55)
(13.3048 798.902 153.55)
(13.3299 799.268 153.55)
(13.345 799.634 153.55)
(23.65 800 136.55)
(23.6411 800.649 136.55)
(23.6144 801.297 136.55)
(23.6411 800.649 163.55)
(23.65 800 163.55)
(23.6144 801.297 163.55)
(23.5699 801.945 136.55)
(23.5077 802.59 136.55)
(23.5699 801.945 163.55)
(23.5077 802.59 163.55)
(23.4278 803.234 136.55)