/*--------------------------------*- C++ -*----------------------------------*\
  =========                 |
  \\      /  F ield         | OpenFOAM: The Open Source CFD Toolbox
   \\    /   O peration     | Website:  https://openfoam.org
    \\  /    A nd           | Version:  10
     \\/     M anipulation  |
\*---------------------------------------------------------------------------*/
FoamFile
{
    format      ascii;
    class       extendedFeatureEdgeMesh;
    location    "constant/extendedFeatureEdgeMesh";
    object      thermowell.extendedFeatureEdgeMesh;
}
// * * * * * * * * * * * * * * * * * * * * * * * * * * * * * * * * * * * * * //

// points

2748
(
(-8.38263 291.205 286.55)
(-8.62076 291.438 286.55)
(-8.8524 291.678 286.55)
(-8.13819 290.978 286.55)
(-9.07738 291.924 286.55)
(-7.88763 290.758 286.55)
(-9.29552 292.176 286.55)
(-7.63112 290.546 286.55)
(-9.50667 292.434 286.55)
(-7.36887 290.34 286.55)
(-9.71066 292.698 286.55)
(-7.10108 290.141 286.55)
(-9.90734 292.967 286.55)
(-6.82793 289.95 286.55)
(-10.0966 293.241 286.55)
(-6.54965 289.767 286.55)
(-10.2782 293.521 286.55)
(-6.26644 289.591 286.55)
(-10.4521 293.805 286.55)
(-5.97851 289.423 286.55)
(-10.6181 294.094 286.55)
(-5.68608 289.263 286.55)
(-10.7761 294.388 286.55)
(-5.38937 289.111 286.55)
(-10.926 294.685 286.55)
(-5.08861 288.967 286.55)
(-11.0677 294.987 286.55)
(-4.78401 288.832 286.55)
(-11.2011 295.293 286.55)
(-4.47581 288.704 286.55)
(-11.326 295.602 286.55)
(-4.16425 288.586 286.55)
(-11.4424 295.914 286.55)
(-3.84954 288.476 286.55)
(-11.5502 296.23 286.55)
(-3.53194 288.375 286.55)
(-11.6493 296.548 286.55)
(-3.21168 288.282 286.55)
(-11.7396 296.869 286.55)
(-2.88901 288.198 286.55)
(-11.8211 297.192 286.55)
(-2.56416 288.124 286.55)
(-11.8937 297.517 286.55)
(-2.23738 288.058 286.55)
(-11.9573 297.845 286.55)
(-1.90891 288.001 286.55)
(-12.0119 298.173 286.55)
(-1.57901 287.953 286.55)
(-12.0575 298.504 286.55)
(-1.24792 287.914 286.55)
(-12.094 298.835 286.55)
(-0.915886 287.885 286.55)
(-12.1214 299.167 286.55)
(-0.583166 287.864 286.55)
(-12.1397 299.5 286.55)
(-0.250006 287.853 286.55)
(-12.1489 299.833 286.55)
(0.0833407 287.85 286.55)
(-12.1489 300.167 286.55)
(0.416625 287.857 286.55)
(-12.1397 300.5 286.55)
(0.749596 287.873 286.55)
(-12.1214 300.833 286.55)
(1.082 287.898 286.55)
(-12.094 301.165 286.55)
(1.41359 287.932 286.55)
(-12.0575 301.496 286.55)
(1.74412 287.976 286.55)
(-12.0119 301.827 286.55)
(2.07334 288.028 286.55)
(-11.9573 302.155 286.55)
(2.40099 288.09 286.55)
(-11.8937 302.483 286.55)
(2.72684 288.16 286.55)
(-11.8211 302.808 286.55)
(3.05063 288.239 286.55)
(-11.7396 303.131 286.55)
(3.37213 288.327 286.55)
(-11.6493 303.452 286.55)
(3.69109 288.424 286.55)
(-11.5502 303.77 286.55)
(4.00727 288.53 286.55)
(-11.4424 304.086 286.55)
(4.32044 288.644 286.55)
(-11.326 304.398 286.55)
(4.63035 288.767 286.55)
(-11.2011 304.707 286.55)
(4.93677 288.898 286.55)
(-11.0677 305.013 286.55)
(5.23948 289.038 286.55)
(-10.926 305.315 286.55)
(5.53825 289.186 286.55)
(-10.7761 305.612 286.55)
(5.83285 289.342 286.55)
(-10.6181 305.906 286.55)
(6.12305 289.506 286.55)
(-10.4521 306.195 286.55)
(6.40865 289.678 286.55)
(-10.2782 306.479 286.55)
(6.68942 289.857 286.55)
(-10.0966 306.759 286.55)
(6.96516 290.045 286.55)
(-9.90734 307.033 286.55)
(7.23565 290.24 286.55)
(-9.71066 307.302 286.55)
(7.5007 290.442 286.55)
(-9.50667 307.566 286.55)
(7.7601 290.651 286.55)
(-9.29552 307.824 286.55)
(8.01366 290.867 286.55)
(-9.07738 308.076 286.55)
(8.26119 291.091 286.55)
(-8.8524 308.322 286.55)
(8.5025 291.321 286.55)
(-8.62076 308.562 286.55)
(8.7374 291.557 286.55)
(-8.38263 308.795 286.55)
(8.96574 291.8 286.55)
(-8.13819 309.022 286.55)
(-7.88763 309.242 286.55)
(9.18732 292.049 286.55)
(9.40198 292.304 286.55)
(9.60957 292.565 286.55)
(-7.63112 309.454 286.55)
(-7.36887 309.66 286.55)
(9.80993 292.832 286.55)
(10.0029 293.103 286.55)
(-7.10108 309.859 286.55)
(-6.82793 310.05 286.55)
(10.1883 293.38 286.55)
(-6.54965 310.233 286.55)
(10.3661 293.662 286.55)
(10.5361 293.949 286.55)
(-6.26644 310.409 286.55)
(-5.97851 310.577 286.55)
(10.6981 294.24 286.55)
(10.8521 294.536 286.55)
(-5.68608 310.737 286.55)
(-5.38937 310.889 286.55)
(-5.08861 311.033 286.55)
(10.9979 294.836 286.55)
(11.1354 295.139 286.55)
(-4.78401 311.168 286.55)
(11.2646 295.447 286.55)
(-4.47581 311.296 286.55)
(-4.16425 311.414 286.55)
(11.3853 295.758 286.55)
(11.4974 296.072 286.55)
(-3.84954 311.524 286.55)
(-3.53194 311.625 286.55)
(11.6008 296.388 286.55)
(11.6955 296.708 286.55)
(-3.21168 311.718 286.55)
(11.7814 297.03 286.55)
(-2.88901 311.802 286.55)
(11.8585 297.354 286.55)
(-2.56416 311.876 286.55)
(11.9266 297.681 286.55)
(11.9857 298.009 286.55)
(-2.23738 311.942 286.55)
(12.0358 298.338 286.55)
(-1.90891 311.999 286.55)
(-1.57901 312.047 286.55)
(12.0769 298.669 286.55)
(12.1089 299.001 286.55)
(-1.24792 312.086 286.55)
(12.1317 299.334 286.55)
(-0.915886 312.115 286.55)
(-0.583166 312.136 286.55)
(-0.250006 312.147 286.55)
(12.1454 299.667 286.55)
(12.15 300 286.55)
(0.0833407 312.15 286.55)
(12.1454 300.333 286.55)
(0.416625 312.143 286.55)
(12.1317 300.666 286.55)
(12.1089 300.999 286.55)
(0.749596 312.127 286.55)
(1.082 312.102 286.55)
(12.0769 301.331 286.55)
(1.41359 312.068 286.55)
(12.0358 301.662 286.55)
(1.74412 312.024 286.55)
(11.9857 301.991 286.55)
(2.07334 311.972 286.55)
(11.9266 302.319 286.55)
(11.8585 302.646 286.55)
(2.40099 311.91 286.55)
(11.7814 302.97 286.55)
(2.72684 311.84 286.55)
(3.05063 311.761 286.55)
(11.6955 303.292 286.55)
(11.6008 303.612 286.55)
(3.37213 311.673 286.55)
(3.69109 311.576 286.55)
(11.4974 303.928 286.55)
(4.00727 311.47 286.55)
(11.3853 304.242 286.55)
(11.2646 304.553 286.55)
(4.32044 311.356 286.55)
(4.63035 311.233 286.55)
(11.1354 304.861 286.55)
(10.9979 305.164 286.55)
(4.93677 311.102 286.55)
(5.23948 310.962 286.55)
(10.8521 305.464 286.55)
(10.6981 305.76 286.55)
(5.53825 310.814 286.55)
(5.83285 310.658 286.55)
(10.5361 306.051 286.55)
(6.12305 310.494 286.55)
(10.3661 306.338 286.55)
(10.1883 306.62 286.55)
(6.40865 310.322 286.55)
(6.68942 310.143 286.55)
(10.0029 306.897 286.55)
(6.96516 309.955 286.55)
(7.23565 309.76 286.55)
(9.80993 307.168 286.55)
(9.60957 307.435 286.55)
(7.5007 309.558 286.55)
(9.40198 307.696 286.55)
(7.7601 309.349 286.55)
(9.18732 307.951 286.55)
(8.01366 309.133 286.55)
(8.96574 308.2 286.55)
(8.26119 308.909 286.55)
(8.7374 308.443 286.55)
(8.5025 308.679 286.55)
(44.4832 301.221 299.55)
(44.5 300 299.55)
(44.433 302.441 299.55)
(44.3493 303.659 299.55)
(44.2323 304.874 299.55)
(44.0819 306.086 299.55)
(43.8984 307.293 299.55)
(43.6818 308.494 299.55)
(43.4323 309.69 299.55)
(43.1501 310.877 299.55)
(42.8355 312.057 299.55)
(42.4886 313.228 299.55)
(42.1097 314.388 299.55)
(41.6991 315.538 299.55)
(41.2571 316.676 299.55)
(40.7841 317.802 299.55)
(40.2804 318.914 299.55)
(39.7463 320.012 299.55)
(39.1824 321.095 299.55)
(38.5889 322.162 299.55)
(37.9664 323.212 299.55)
(37.3153 324.245 299.55)
(36.6361 325.26 299.55)
(35.9294 326.255 299.55)
(35.1955 327.231 299.55)
(34.4352 328.186 299.55)
(33.649 329.12 299.55)
(32.8375 330.033 299.55)
(32.0012 330.922 299.55)
(31.1408 331.788 299.55)
(30.257 332.631 299.55)
(29.3505 333.448 299.55)
(28.4218 334.241 299.55)
(27.4717 335.008 299.55)
(26.501 335.748 299.55)
(25.5103 336.462 299.55)
(24.5004 337.148 299.55)
(23.472 337.806 299.55)
(22.426 338.436 299.55)
(21.3631 339.037 299.55)
(20.2841 339.608 299.55)
(19.1899 340.15 299.55)
(18.0812 340.661 299.55)
(16.9589 341.142 299.55)
(15.8238 341.591 299.55)
(14.6768 342.01 299.55)
(13.5188 342.397 299.55)
(12.3506 342.752 299.55)
(11.1731 343.074 299.55)
(9.98719 343.365 299.55)
(8.79376 343.622 299.55)
(7.59371 343.847 299.55)
(6.38794 344.039 299.55)
(5.17736 344.198 299.55)
(3.96289 344.323 299.55)
(2.74543 344.415 299.55)
(1.52591 344.474 299.55)
(0.30524 344.499 299.55)
(-0.915662 344.491 299.55)
(-2.13587 344.449 299.55)
(-3.35448 344.373 299.55)
(-4.57056 344.265 299.55)
(-5.7832 344.123 299.55)
(-6.99148 343.947 299.55)
(-8.1945 343.739 299.55)
(-9.39136 343.498 299.55)
(-10.5811 343.224 299.55)
(-11.763 342.917 299.55)
(-12.9359 342.578 299.55)
(-14.0991 342.207 299.55)
(-15.2518 341.805 299.55)
(-16.3929 341.371 299.55)
(-17.5217 340.905 299.55)
(-18.6373 340.409 299.55)
(-19.7389 339.883 299.55)
(-20.8256 339.326 299.55)
(-21.8966 338.74 299.55)
(-22.9512 338.125 299.55)
(-23.9884 337.481 299.55)
(-25.0077 336.809 299.55)
(-26.0081 336.109 299.55)
(-26.9889 335.382 299.55)
(-27.9494 334.628 299.55)
(-28.8888 333.848 299.55)
(-29.8065 333.043 299.55)
(-30.7018 332.212 299.55)
(-31.574 331.358 299.55)
(-32.4224 330.48 299.55)
(-33.2464 329.579 299.55)
(-34.0453 328.656 299.55)
(-34.8187 327.711 299.55)
(-35.5658 326.746 299.55)
(-36.2862 325.76 299.55)
(-36.9792 324.755 299.55)
(-37.6444 323.731 299.55)
(-38.2812 322.689 299.55)
(-38.8893 321.63 299.55)
(-39.4681 320.555 299.55)
(-40.0171 319.465 299.55)
(-40.5361 318.36 299.55)
(-41.0245 317.241 299.55)
(-41.482 316.109 299.55)
(-41.9083 314.965 299.55)
(-42.3031 313.809 299.55)
(-42.666 312.644 299.55)
(-42.9968 311.468 299.55)
(-43.2953 310.284 299.55)
(-43.5611 309.093 299.55)
(-43.7942 307.894 299.55)
(-43.9943 306.69 299.55)
(-44.1612 305.48 299.55)
(-44.295 304.267 299.55)
(-44.3954 303.05 299.55)
(-44.4623 301.831 299.55)
(-44.4958 300.611 299.55)
(-44.4958 299.389 299.55)
(-44.4623 298.169 299.55)
(-44.3954 296.95 299.55)
(-44.295 295.733 299.55)
(-44.1612 294.52 299.55)
(-43.9943 293.31 299.55)
(-43.7942 292.106 299.55)
(-43.5611 290.907 299.55)
(-43.2953 289.716 299.55)
(-42.9968 288.532 299.55)
(-42.666 287.356 299.55)
(-42.3031 286.191 299.55)
(-41.9083 285.035 299.55)
(-41.482 283.891 299.55)
(-41.0245 282.759 299.55)
(-40.5361 281.64 299.55)
(-40.0171 280.535 299.55)
(-39.4681 279.445 299.55)
(-38.8893 278.37 299.55)
(-38.2812 277.311 299.55)
(-37.6444 276.269 299.55)
(-36.9792 275.245 299.55)
(-36.2862 274.24 299.55)
(-35.5658 273.254 299.55)
(-34.8187 272.289 299.55)
(-34.0453 271.344 299.55)
(-33.2464 270.421 299.55)
(-32.4224 269.52 299.55)
(-31.574 268.642 299.55)
(-30.7018 267.788 299.55)
(-29.8065 266.957 299.55)
(-28.8888 266.152 299.55)
(-27.9494 265.372 299.55)
(-26.9889 264.618 299.55)
(-26.0081 263.891 299.55)
(-25.0077 263.191 299.55)
(-23.9884 262.519 299.55)
(-22.9512 261.875 299.55)
(-21.8966 261.26 299.55)
(-20.8256 260.674 299.55)
(-19.7389 260.117 299.55)
(-18.6373 259.591 299.55)
(-17.5217 259.095 299.55)
(-16.3929 258.629 299.55)
(-15.2518 258.195 299.55)
(-14.0991 257.793 299.55)
(-12.9359 257.422 299.55)
(-11.763 257.083 299.55)
(-10.5811 256.776 299.55)
(-9.39136 256.502 299.55)
(-8.1945 256.261 299.55)
(-6.99148 256.053 299.55)
(-5.7832 255.877 299.55)
(-4.57056 255.735 299.55)
(-3.35448 255.627 299.55)
(-2.13587 255.551 299.55)
(-0.915662 255.509 299.55)
(0.30524 255.501 299.55)
(1.52591 255.526 299.55)
(2.74543 255.585 299.55)
(3.96289 255.677 299.55)
(5.17736 255.802 299.55)
(6.38794 255.961 299.55)
(7.59371 256.153 299.55)
(8.79376 256.378 299.55)
(9.98719 256.635 299.55)
(11.1731 256.926 299.55)
(12.3506 257.248 299.55)
(13.5188 257.603 299.55)
(14.6768 257.99 299.55)
(15.8238 258.409 299.55)
(16.9589 258.858 299.55)
(18.0812 259.339 299.55)
(19.1899 259.85 299.55)
(20.2841 260.392 299.55)
(21.3631 260.963 299.55)
(22.426 261.564 299.55)
(23.472 262.194 299.55)
(24.5004 262.852 299.55)
(25.5103 263.538 299.55)
(26.501 264.252 299.55)
(27.4717 264.992 299.55)
(28.4218 265.759 299.55)
(29.3505 266.552 299.55)
(30.257 267.369 299.55)
(31.1408 268.212 299.55)
(32.0012 269.078 299.55)
(32.8375 269.967 299.55)
(33.649 270.88 299.55)
(34.4352 271.814 299.55)
(35.1955 272.769 299.55)
(35.9294 273.745 299.55)
(36.6361 274.74 299.55)
(37.3153 275.755 299.55)
(37.9664 276.788 299.55)
(38.5889 277.838 299.55)
(39.1824 278.905 299.55)
(39.7463 279.988 299.55)
(40.2804 281.086 299.55)
(40.7841 282.198 299.55)
(41.2571 283.324 299.55)
(41.6991 284.462 299.55)
(42.1097 285.612 299.55)
(42.4886 286.772 299.55)
(42.8355 287.943 299.55)
(43.1501 289.123 299.55)
(43.4323 290.31 299.55)
(43.6818 291.506 299.55)
(43.8984 292.707 299.55)
(44.0819 293.914 299.55)
(44.2323 295.126 299.55)
(44.3493 296.341 299.55)
(44.433 297.559 299.55)
(44.4832 298.779 299.55)
(16.7 300 136.55)
(16.6937 300.458 136.55)
(16.6937 300.458 286.55)
(16.7 300 286.55)
(16.6749 300.916 136.55)
(16.6749 300.916 286.55)
(16.6435 301.373 136.55)
(16.6435 301.373 286.55)
(16.5995 301.829 136.55)
(16.5995 301.829 286.55)
(16.5431 302.284 136.55)
(16.5431 302.284 286.55)
(16.4742 302.737 136.55)
(16.4742 302.737 286.55)
(16.3929 303.188 136.55)
(16.3929 303.188 286.55)
(16.2993 303.636 136.55)
(16.2993 303.636 286.55)
(16.1934 304.082 136.55)
(16.1934 304.082 286.55)
(16.0753 304.525 286.55)
(16.0753 304.525 136.55)
(15.9452 304.964 286.55)
(15.9452 304.964 136.55)
(15.803 305.4 286.55)
(15.803 305.4 136.55)
(15.6489 305.831 136.55)
(15.6489 305.831 286.55)
(15.483 306.258 286.55)
(15.483 306.258 136.55)
(15.3055 306.681 286.55)
(15.3055 306.681 136.55)
(15.1165 307.098 286.55)
(15.1165 307.098 136.55)
(14.916 307.51 286.55)
(14.916 307.51 136.55)
(14.7044 307.917 136.55)
(14.7044 307.917 286.55)
(14.4817 308.317 286.55)
(14.4817 308.317 136.55)
(14.2481 308.711 286.55)
(14.2481 308.711 136.55)
(14.0037 309.099 286.55)
(14.0037 309.099 136.55)
(13.7488 309.479 136.55)
(13.7488 309.479 286.55)
(13.4836 309.853 136.55)
(13.2082 310.219 136.55)
(13.4836 309.853 286.55)
(13.2082 310.219 286.55)
(12.9229 310.578 136.55)
(12.9229 310.578 286.55)
(12.6278 310.928 136.55)
(12.3233 311.271 136.55)
(12.6278 310.928 286.55)
(12.3233 311.271 286.55)
(12.0094 311.604 136.55)
(11.6866 311.93 136.55)
(12.0094 311.604 286.55)
(11.3549 312.246 136.55)
(11.6866 311.93 286.55)
(11.3549 312.246 286.55)
(11.0147 312.553 136.55)
(10.6662 312.85 136.55)
(11.0147 312.553 286.55)
(10.6662 312.85 286.55)
(10.3096 313.138 136.55)
(10.3096 313.138 286.55)
(9.9453 313.416 136.55)
(9.9453 313.416 286.55)
(9.57351 313.684 136.55)
(9.57351 313.684 286.55)
(9.19452 313.941 136.55)
(9.19452 313.941 286.55)
(8.8086 314.188 286.55)
(8.8086 314.188 136.55)
(8.41605 314.424 136.55)
(8.41605 314.424 286.55)
(8.01717 314.65 286.55)
(8.01717 314.65 136.55)
(7.61225 314.864 286.55)
(7.61225 314.864 136.55)
(7.20159 315.067 286.55)
(7.20159 315.067 136.55)
(6.78552 315.259 286.55)
(6.78552 315.259 136.55)
(6.36435 315.44 136.55)
(6.36435 315.44 286.55)
(5.93838 315.608 286.55)
(5.93838 315.608 136.55)
(5.50794 315.766 286.55)
(5.50794 315.766 136.55)
(5.07335 315.911 286.55)
(5.07335 315.911 136.55)
(4.63494 316.044 286.55)
(4.63494 316.044 136.55)
(4.19305 316.165 286.55)
(4.19305 316.165 136.55)
(3.748 316.274 136.55)
(3.748 316.274 286.55)
(3.30013 316.371 286.55)
(3.30013 316.371 136.55)
(2.84977 316.455 286.55)
(2.84977 316.455 136.55)
(2.39727 316.527 286.55)
(2.39727 316.527 136.55)
(1.94297 316.587 286.55)
(1.94297 316.587 136.55)
(1.4872 316.634 136.55)
(1.4872 316.634 286.55)
(1.03031 316.668 286.55)
(1.03031 316.668 136.55)
(0.572645 316.69 286.55)
(0.572645 316.69 136.55)
(0.114551 316.7 136.55)
(0.114551 316.7 286.55)
(-0.34363 316.697 136.55)
(-0.34363 316.697 286.55)
(-0.801553 316.681 136.55)
(-0.801553 316.681 286.55)
(-1.25887 316.652 136.55)
(-1.25887 316.652 286.55)
(-1.71524 316.612 286.55)
(-1.71524 316.612 136.55)
(-2.17032 316.558 286.55)
(-2.17032 316.558 136.55)
(-2.62377 316.493 286.55)
(-2.62377 316.493 136.55)
(-3.07524 316.414 286.55)
(-3.07524 316.414 136.55)
(-3.5244 316.324 286.55)
(-3.5244 316.324 136.55)
(-3.9709 316.221 286.55)
(-3.9709 316.221 136.55)
(-4.41441 316.106 286.55)
(-4.41441 316.106 136.55)
(-4.85461 315.979 286.55)
(-4.85461 315.979 136.55)
(-5.29114 315.84 286.55)
(-5.29114 315.84 136.55)
(-5.72369 315.689 286.55)
(-5.72369 315.689 136.55)
(-6.15194 315.526 286.55)
(-6.15194 315.526 136.55)
(-6.57555 315.351 286.55)
(-6.57555 315.351 136.55)
(-6.99422 315.165 136.55)
(-7.40762 314.967 136.55)
(-6.99422 315.165 286.55)
(-7.40762 314.967 286.55)
(-7.81544 314.758 136.55)
(-7.81544 314.758 286.55)
(-8.21738 314.538 136.55)
(-8.21738 314.538 286.55)
(-8.61313 314.307 136.55)
(-8.61313 314.307 286.55)
(-9.0024 314.066 136.55)
(-9.0024 314.066 286.55)
(-9.3849 313.814 136.55)
(-9.76033 313.551 136.55)
(-9.3849 313.814 286.55)
(-9.76033 313.551 286.55)
(-10.1284 313.278 136.55)
(-10.1284 313.278 286.55)
(-10.4889 312.995 136.55)
(-10.4889 312.995 286.55)
(-10.8414 312.703 136.55)
(-11.1858 312.4 136.55)
(-10.8414 312.703 286.55)
(-11.1858 312.4 286.55)
(-11.5218 312.089 136.55)
(-11.5218 312.089 286.55)
(-11.8491 311.768 136.55)
(-11.8491 311.768 286.55)
(-12.1675 311.439 286.55)
(-12.1675 311.439 136.55)
(-12.4767 311.1 286.55)
(-12.4767 311.1 136.55)
(-12.7766 310.754 286.55)
(-12.7766 310.754 136.55)
(-13.0668 310.4 136.55)
(-13.0668 310.4 286.55)
(-13.3472 310.037 136.55)
(-13.3472 310.037 286.55)
(-13.6175 309.667 136.55)
(-13.6175 309.667 286.55)
(-13.8776 309.29 136.55)
(-13.8776 309.29 286.55)
(-14.1272 308.906 136.55)
(-14.1272 308.906 286.55)
(-14.3662 308.515 136.55)
(-14.3662 308.515 286.55)
(-14.5944 308.117 136.55)
(-14.5944 308.117 286.55)
(-14.8116 307.714 136.55)
(-14.8116 307.714 286.55)
(-15.0177 307.305 136.55)
(-15.0177 307.305 286.55)
(-15.2124 306.89 136.55)
(-15.2124 306.89 286.55)
(-15.3957 306.47 136.55)
(-15.3957 306.47 286.55)
(-15.5674 306.045 136.55)
(-15.5674 306.045 286.55)
(-15.7274 305.616 136.55)
(-15.7274 305.616 286.55)
(-15.8756 305.182 136.55)
(-15.8756 305.182 286.55)
(-16.0117 304.745 136.55)
(-16.0117 304.745 286.55)
(-16.1359 304.304 136.55)
(-16.1359 304.304 286.55)
(-16.2479 303.859 136.55)
(-16.2479 303.859 286.55)
(-16.3477 303.412 136.55)
(-16.3477 303.412 286.55)
(-16.4351 302.963 136.55)
(-16.5102 302.511 136.55)
(-16.4351 302.963 286.55)
(-16.5102 302.511 286.55)
(-16.5729 302.057 136.55)
(-16.5729 302.057 286.55)
(-16.6231 301.601 286.55)
(-16.6231 301.601 136.55)
(-16.6607 301.145 286.55)
(-16.6607 301.145 136.55)
(-16.6859 300.687 286.55)
(-16.6859 300.687 136.55)
(-16.6984 300.229 286.55)
(-16.6984 300.229 136.55)
(-16.6984 299.771 136.55)
(-16.6984 299.771 286.55)
(-16.6859 299.313 136.55)
(-16.6859 299.313 286.55)
(-16.6607 298.855 286.55)
(-16.6607 298.855 136.55)
(-16.6231 298.399 286.55)
(-16.6231 298.399 136.55)
(-16.5729 297.943 136.55)
(-16.5729 297.943 286.55)
(-16.5102 297.489 286.55)
(-16.5102 297.489 136.55)
(-16.4351 297.037 136.55)
(-16.4351 297.037 286.55)
(-16.3477 296.588 136.55)
(-16.3477 296.588 286.55)
(-16.2479 296.141 136.55)
(-16.2479 296.141 286.55)
(-16.1359 295.696 136.55)
(-16.1359 295.696 286.55)
(-16.0117 295.255 136.55)
(-16.0117 295.255 286.55)
(-15.8756 294.818 136.55)
(-15.7274 294.384 136.55)
(-15.8756 294.818 286.55)
(-15.5674 293.955 136.55)
(-15.7274 294.384 286.55)
(-15.5674 293.955 286.55)
(-15.3957 293.53 136.55)
(-15.2124 293.11 136.55)
(-15.3957 293.53 286.55)
(-15.0177 292.695 136.55)
(-15.2124 293.11 286.55)
(-15.0177 292.695 286.55)
(-14.8116 292.286 136.55)
(-14.8116 292.286 286.55)
(-14.5944 291.883 136.55)
(-14.3662 291.485 136.55)
(-14.5944 291.883 286.55)
(-14.3662 291.485 286.55)
(-14.1272 291.094 136.55)
(-13.8776 290.71 136.55)
(-14.1272 291.094 286.55)
(-13.8776 290.71 286.55)
(-13.6175 290.333 286.55)
(-13.6175 290.333 136.55)
(-13.3472 289.963 286.55)
(-13.3472 289.963 136.55)
(-13.0668 289.6 286.55)
(-13.0668 289.6 136.55)
(-12.7766 289.246 136.55)
(-12.7766 289.246 286.55)
(-12.4767 288.9 286.55)
(-12.4767 288.9 136.55)
(-12.1675 288.561 136.55)
(-12.1675 288.561 286.55)
(-11.8491 288.232 286.55)
(-11.8491 288.232 136.55)
(-11.5218 287.911 286.55)
(-11.5218 287.911 136.55)
(-11.1858 287.6 136.55)
(-11.1858 287.6 286.55)
(-10.8414 287.297 286.55)
(-10.8414 287.297 136.55)
(-10.4889 287.005 136.55)
(-10.4889 287.005 286.55)
(-10.1284 286.722 286.55)
(-10.1284 286.722 136.55)
(-9.76033 286.449 286.55)
(-9.76033 286.449 136.55)
(-9.3849 286.186 136.55)
(-9.3849 286.186 286.55)
(-9.0024 285.934 136.55)
(-9.0024 285.934 286.55)
(-8.61313 285.693 286.55)
(-8.61313 285.693 136.55)
(-8.21738 285.462 136.55)
(-8.21738 285.462 286.55)
(-7.81544 285.242 136.55)
(-7.81544 285.242 286.55)
(-7.40762 285.033 286.55)
(-7.40762 285.033 136.55)
(-6.99422 284.835 136.55)
(-6.99422 284.835 286.55)
(-6.57555 284.649 286.55)
(-6.57555 284.649 136.55)
(-6.15194 284.474 136.55)
(-5.72369 284.311 136.55)
(-6.15194 284.474 286.55)
(-5.72369 284.311 286.55)
(-5.29114 284.16 136.55)
(-5.29114 284.16 286.55)
(-4.85461 284.021 136.55)
(-4.85461 284.021 286.55)
(-4.41441 283.894 286.55)
(-4.41441 283.894 136.55)
(-3.9709 283.779 136.55)
(-3.9709 283.779 286.55)
(-3.5244 283.676 286.55)
(-3.5244 283.676 136.55)
(-3.07524 283.586 136.55)
(-3.07524 283.586 286.55)
(-2.62377 283.507 136.55)
(-2.62377 283.507 286.55)
(-2.17032 283.442 286.55)
(-2.17032 283.442 136.55)
(-1.71524 283.388 136.55)
(-1.71524 283.388 286.55)
(-1.25887 283.348 136.55)
(-1.25887 283.348 286.55)
(-0.801553 283.319 286.55)
(-0.801553 283.319 136.55)
(-0.34363 283.303 136.55)
(-0.34363 283.303 286.55)
(0.114551 283.3 136.55)
(0.114551 283.3 286.55)
(0.572645 283.31 136.55)
(1.03031 283.332 136.55)
(0.572645 283.31 286.55)
(1.4872 283.366 136.55)
(1.03031 283.332 286.55)
(1.4872 283.366 286.55)
(1.94297 283.413 136.55)
(2.39727 283.473 136.55)
(1.94297 283.413 286.55)
(2.39727 283.473 286.55)
(2.84977 283.545 136.55)
(2.84977 283.545 286.55)
(3.30013 283.629 136.55)
(3.30013 283.629 286.55)
(3.748 283.726 136.55)
(4.19305 283.835 136.55)
(3.748 283.726 286.55)
(4.19305 283.835 286.55)
(4.63494 283.956 136.55)
(5.07335 284.089 136.55)
(4.63494 283.956 286.55)
(5.50794 284.234 136.55)
(5.07335 284.089 286.55)
(5.50794 284.234 286.55)
(5.93838 284.392 136.55)
(5.93838 284.392 286.55)
(6.36435 284.56 136.55)
(6.36435 284.56 286.55)
(6.78552 284.741 286.55)
(6.78552 284.741 136.55)
(7.20159 284.933 136.55)
(7.20159 284.933 286.55)
(7.61225 285.136 286.55)
(7.61225 285.136 136.55)
(8.01717 285.35 286.55)
(8.01717 285.35 136.55)
(8.41605 285.576 136.55)
(8.41605 285.576 286.55)
(8.8086 285.812 136.55)
(9.19452 286.059 136.55)
(8.8086 285.812 286.55)
(9.19452 286.059 286.55)
(9.57351 286.316 136.55)
(9.9453 286.584 136.55)
(9.57351 286.316 286.55)
(9.9453 286.584 286.55)
(10.3096 286.862 136.55)
(10.6662 287.15 136.55)
(10.3096 286.862 286.55)
(10.6662 287.15 286.55)
(11.0147 287.447 136.55)
(11.3549 287.754 136.55)
(11.0147 287.447 286.55)
(11.3549 287.754 286.55)
(11.6866 288.07 136.55)
(12.0094 288.396 136.55)
(11.6866 288.07 286.55)
(12.0094 288.396 286.55)
(12.3233 288.729 136.55)
(12.3233 288.729 286.55)
(12.6278 289.072 136.55)
(12.6278 289.072 286.55)
(12.9229 289.422 136.55)
(13.2082 289.781 136.55)
(12.9229 289.422 286.55)
(13.2082 289.781 286.55)
(13.4836 290.147 136.55)
(13.4836 290.147 286.55)
(13.7488 290.521 136.55)
(13.7488 290.521 286.55)
(14.0037 290.901 136.55)
(14.2481 291.289 136.55)
(14.0037 290.901 286.55)
(14.2481 291.289 286.55)
(14.4817 291.683 136.55)
(14.4817 291.683 286.55)
(14.7044 292.083 136.55)
(14.7044 292.083 286.55)
(14.916 292.49 286.55)
(14.916 292.49 136.55)
(15.1165 292.902 286.55)
(15.1165 292.902 136.55)
(15.3055 293.319 136.55)
(15.3055 293.319 286.55)
(15.483 293.742 136.55)
(15.483 293.742 286.55)
(15.6489 294.169 136.55)
(15.803 294.6 136.55)
(15.6489 294.169 286.55)
(15.803 294.6 286.55)
(15.9452 295.036 286.55)
(15.9452 295.036 136.55)
(16.0753 295.475 136.55)
(16.0753 295.475 286.55)
(16.1934 295.918 136.55)
(16.1934 295.918 286.55)
(16.2993 296.364 136.55)
(16.2993 296.364 286.55)
(16.3929 296.812 286.55)
(16.3929 296.812 136.55)
(16.4742 297.263 136.55)
(16.4742 297.263 286.55)
(16.5431 297.716 286.55)
(16.5431 297.716 136.55)
(16.5995 298.171 286.55)
(16.5995 298.171 136.55)
(16.6435 298.627 136.55)
(16.6435 298.627 286.55)
(16.6749 299.084 136.55)
(16.6749 299.084 286.55)
(16.6937 299.542 136.55)
(16.6937 299.542 286.55)
(-8.62076 291.438 136.55)
(-8.38263 291.205 136.55)
(-8.8524 291.678 136.55)
(-8.13819 290.978 136.55)
(-9.07738 291.924 136.55)
(-7.88763 290.758 136.55)
(-9.29552 292.176 136.55)
(-7.63112 290.546 136.55)
(-9.50667 292.434 136.55)
(-7.36887 290.34 136.55)
(-9.71066 292.698 136.55)
(-7.10108 290.141 136.55)
(-9.90734 292.967 136.55)
(-6.82793 289.95 136.55)
(-10.0966 293.241 136.55)
(-6.54965 289.767 136.55)
(-10.2782 293.521 136.55)
(-6.26644 289.591 136.55)
(-10.4521 293.805 136.55)
(-5.97851 289.423 136.55)
(-10.6181 294.094 136.55)
(-5.68608 289.263 136.55)
(-10.7761 294.388 136.55)
(-5.38937 289.111 136.55)
(-10.926 294.685 136.55)
(-5.08861 288.967 136.55)
(-11.0677 294.987 136.55)
(-4.78401 288.832 136.55)
(-11.2011 295.293 136.55)
(-4.47581 288.704 136.55)
(-11.326 295.602 136.55)
(-4.16425 288.586 136.55)
(-11.4424 295.914 136.55)
(-3.84954 288.476 136.55)
(-11.5502 296.23 136.55)
(-3.53194 288.375 136.55)
(-11.6493 296.548 136.55)
(-3.21168 288.282 136.55)
(-11.7396 296.869 136.55)
(-2.88901 288.198 136.55)
(-11.8211 297.192 136.55)
(-2.56416 288.124 136.55)
(-11.8937 297.517 136.55)
(-2.23738 288.058 136.55)
(-11.9573 297.845 136.55)
(-1.90891 288.001 136.55)
(-12.0119 298.173 136.55)
(-1.57901 287.953 136.55)
(-12.0575 298.504 136.55)
(-1.24792 287.914 136.55)
(-12.094 298.835 136.55)
(-0.915886 287.885 136.55)
(-12.1214 299.167 136.55)
(-0.583166 287.864 136.55)
(-12.1397 299.5 136.55)
(-0.250006 287.853 136.55)
(-12.1489 299.833 136.55)
(0.0833407 287.85 136.55)
(-12.1489 300.167 136.55)
(0.416625 287.857 136.55)
(-12.1397 300.5 136.55)
(0.749596 287.873 136.55)
(-12.1214 300.833 136.55)
(1.082 287.898 136.55)
(-12.094 301.165 136.55)
(1.41359 287.932 136.55)
(-12.0575 301.496 136.55)
(1.74412 287.976 136.55)
(-12.0119 301.827 136.55)
(2.07334 288.028 136.55)
(-11.9573 302.155 136.55)
(2.40099 288.09 136.55)
(-11.8937 302.483 136.55)
(2.72684 288.16 136.55)
(-11.8211 302.808 136.55)
(3.05063 288.239 136.55)
(-11.7396 303.131 136.55)
(3.37213 288.327 136.55)
(-11.6493 303.452 136.55)
(3.69109 288.424 136.55)
(-11.5502 303.77 136.55)
(4.00727 288.53 136.55)
(-11.4424 304.086 136.55)
(4.32044 288.644 136.55)
(-11.326 304.398 136.55)
(4.63035 288.767 136.55)
(-11.2011 304.707 136.55)
(4.93677 288.898 136.55)
(-11.0677 305.013 136.55)
(5.23948 289.038 136.55)
(-10.926 305.315 136.55)
(5.53825 289.186 136.55)
(-10.7761 305.612 136.55)
(5.83285 289.342 136.55)
(-10.6181 305.906 136.55)
(6.12305 289.506 136.55)
(-10.4521 306.195 136.55)
(6.40865 289.678 136.55)
(-10.2782 306.479 136.55)
(6.68942 289.857 136.55)
(-10.0966 306.759 136.55)
(6.96516 290.045 136.55)
(-9.90734 307.033 136.55)
(7.23565 290.24 136.55)
(-9.71066 307.302 136.55)
(7.5007 290.442 136.55)
(-9.50667 307.566 136.55)
(7.7601 290.651 136.55)
(-9.29552 307.824 136.55)
(8.01366 290.867 136.55)
(-9.07738 308.076 136.55)
(8.26119 291.091 136.55)
(-8.8524 308.322 136.55)
(8.5025 291.321 136.55)
(-8.62076 308.562 136.55)
(8.7374 291.557 136.55)
(-8.38263 308.795 136.55)
(8.96574 291.8 136.55)
(-8.13819 309.022 136.55)
(-7.88763 309.242 136.55)
(9.18732 292.049 136.55)
(9.40198 292.304 136.55)
(9.60957 292.565 136.55)
(-7.63112 309.454 136.55)
(-7.36887 309.66 136.55)
(9.80993 292.832 136.55)
(10.0029 293.103 136.55)
(-7.10108 309.859 136.55)
(-6.82793 310.05 136.55)
(10.1883 293.38 136.55)
(-6.54965 310.233 136.55)
(10.3661 293.662 136.55)
(10.5361 293.949 136.55)
(-6.26644 310.409 136.55)
(-5.97851 310.577 136.55)
(10.6981 294.24 136.55)
(10.8521 294.536 136.55)
(-5.68608 310.737 136.55)
(-5.08861 311.033 136.55)
(-5.38937 310.889 136.55)
(10.9979 294.836 136.55)
(11.1354 295.139 136.55)
(-4.78401 311.168 136.55)
(11.2646 295.447 136.55)
(-4.16425 311.414 136.55)
(-4.47581 311.296 136.55)
(11.3853 295.758 136.55)
(11.4974 296.072 136.55)
(-3.53194 311.625 136.55)
(-3.84954 311.524 136.55)
(11.6008 296.388 136.55)
(11.6955 296.708 136.55)
(-3.21168 311.718 136.55)
(11.7814 297.03 136.55)
(-2.88901 311.802 136.55)
(11.8585 297.354 136.55)
(-2.56416 311.876 136.55)
(11.9266 297.681 136.55)
(11.9857 298.009 136.55)
(-2.23738 311.942 136.55)
(12.0358 298.338 136.55)
(-1.90891 311.999 136.55)
(-1.57901 312.047 136.55)
(12.0769 298.669 136.55)
(12.1089 299.001 136.55)
(-1.24792 312.086 136.55)
(12.1317 299.334 136.55)
(-0.915886 312.115 136.55)
(-0.250006 312.147 136.55)
(-0.583166 312.136 136.55)
(12.1454 299.667 136.55)
(12.15 300 136.55)
(0.0833407 312.15 136.55)
(12.1454 300.333 136.55)
(0.416625 312.143 136.55)
(12.1317 300.666 136.55)
(12.1089 300.999 136.55)
(1.082 312.102 136.55)
(0.749596 312.127 136.55)
(12.0769 301.331 136.55)
(1.41359 312.068 136.55)
(12.0358 301.662 136.55)
(1.74412 312.024 136.55)
(11.9857 301.991 136.55)
(2.07334 311.972 136.55)
(11.9266 302.319 136.55)
(11.8585 302.646 136.55)
(2.40099 311.91 136.55)
(11.7814 302.97 136.55)
(3.05063 311.761 136.55)
(2.72684 311.84 136.55)
(11.6955 303.292 136.55)
(11.6008 303.612 136.55)
(3.37213 311.673 136.55)
(3.69109 311.576 136.55)
(11.4974 303.928 136.55)
(4.00727 311.47 136.55)
(11.3853 304.242 136.55)
(11.2646 304.553 136.55)
(4.32044 311.356 136.55)
(4.63035 311.233 136.55)
(11.1354 304.861 136.55)
(10.9979 305.164 136.55)
(4.93677 311.102 136.55)
(5.23948 310.962 136.55)
(10.8521 305.464 136.55)
(10.6981 305.76 136.55)
(5.53825 310.814 136.55)
(5.83285 310.658 136.55)
(10.5361 306.051 136.55)
(6.12305 310.494 136.55)
(10.3661 306.338 136.55)
(10.1883 306.62 136.55)
(6.40865 310.322 136.55)
(6.68942 310.143 136.55)
(10.0029 306.897 136.55)
(7.23565 309.76 136.55)
(6.96516 309.955 136.55)
(9.80993 307.168 136.55)
(9.60957 307.435 136.55)
(7.5007 309.558 136.55)
(9.40198 307.696 136.55)
(7.7601 309.349 136.55)
(9.18732 307.951 136.55)
(8.01366 309.133 136.55)
(8.96574 308.2 136.55)
(8.26119 308.909 136.55)
(8.7374 308.443 136.55)
(8.5025 308.679 136.55)
(5 300 -0.45)
(4.99812 300.137 -0.45)
(4.99812 300.137 299.55)
(5 300 299.55)
(4.99247 300.274 -0.45)
(4.99247 300.274 299.55)
(4.98307 300.411 -0.45)
(4.98307 300.411 299.55)
(4.96992 300.548 -0.45)
(4.96992 300.548 299.55)
(4.95302 300.684 -0.45)
(4.95302 300.684 299.55)
(4.9324 300.819 -0.45)
(4.9324 300.819 299.55)
(4.90806 300.954 -0.45)
(4.90806 300.954 299.55)
(4.88003 301.089 -0.45)